
*** ChampSim Multicore Out-of-Order Simulator ***

Warmup Instructions: 1000000
Simulation Instructions: 1000000
Number of CPUs: 2
LLC sets: 4096
LLC ways: 16
Off-chip DRAM Size: 4096 MB Channels: 1 Width: 64-bit Data Rate: 3200 MT/s

CPU 0 runs /mnt/c/Users/Rishabh/Desktop/cs204/UCP-ChampSim/dpc3_traces/milc_744B.trace.xz
CPU 1 runs /mnt/c/Users/Rishabh/Desktop/cs204/UCP-ChampSim/dpc3_traces/cactusADM_1495B.trace.xz
CPU 0 Bimodal branch predictor
CPU 1 Bimodal branch predictor
16 0 
8 8 
16 0 
8 8 
15 1 
8 8 
15 1 
8 8 
14 2 
8 8 
13 3 
8 8 
13 3 
8 8 
13 3 
8 8 
12 4 
8 8 
11 5 
8 8 
11 5 
8 8 
10 6 
8 8 
9 7 
8 8 
9 7 
8 8 
8 8 
8 8 
8 8 
8 8 
8 8 
8 8 
8 8 
8 8 
8 8 
8 8 
8 8 
8 8 
8 8 
8 8 
8 8 
8 8 
8 8 
8 8 
8 8 
8 8 
8 8 
8 8 
8 8 
8 8 
8 8 
8 8 
8 8 
8 8 
8 8 
8 8 
8 8 
8 8 
8 8 
8 8 
8 8 
8 8 
8 8 
8 8 
8 8 
8 8 
8 8 
8 8 
8 8 
8 8 
8 8 
8 8 
8 8 
8 8 
8 8 
8 8 
8 8 
8 8 
8 8 
8 8 
8 8 
8 8 
8 8 
8 8 
8 8 
8 8 
8 8 
8 8 
8 8 
8 8 
8 8 
8 8 
8 8 
8 8 
8 8 
8 8 
8 8 
8 8 
8 8 
8 8 
8 8 
8 8 
8 8 
8 8 
8 8 
8 8 
8 8 
8 8 
8 8 
8 8 
8 8 
8 8 
8 8 
8 8 
8 8 
8 8 
8 8 
8 8 
8 8 
8 8 
8 8 
8 8 
8 8 
8 8 
8 8 
8 8 
8 8 
8 8 
8 8 
8 8 
8 8 
8 8 
8 8 
8 8 
8 8 
8 8 
8 8 
8 8 
8 8 
8 8 
8 8 
8 8 
8 8 
8 8 
8 8 
8 8 
8 8 
8 8 
8 8 
8 8 
8 8 
8 8 
8 8 
8 8 
8 8 
8 8 
8 8 
8 8 
8 8 
8 8 
8 8 
8 8 
8 8 
8 8 
8 8 
8 8 
8 8 
8 8 
8 8 
8 8 
8 8 
8 8 
8 8 
8 8 
8 8 
8 8 
8 8 
8 8 
8 8 
8 8 
8 8 
8 8 
8 8 
8 8 
8 8 
8 8 
8 8 
8 8 
8 8 
8 8 
8 8 
8 8 
8 8 
8 8 
8 8 
8 8 
8 8 
8 8 
8 8 
8 8 
8 8 
8 8 
8 8 
8 8 
8 8 
8 8 
8 8 
8 8 
8 8 
8 8 
8 8 
8 8 
8 8 
8 8 
8 8 
8 8 
8 8 
8 8 
8 8 
8 8 
8 8 
8 8 
8 8 
8 8 
8 8 
8 8 
8 8 
8 8 
8 8 
8 8 
8 8 
8 8 
8 8 
8 8 
8 8 
8 8 
8 8 
8 8 
8 8 
8 8 
8 8 
8 8 
8 8 
8 8 
8 8 
8 8 
8 8 
8 8 
8 8 
8 8 
8 8 
8 8 
8 8 
8 8 
8 8 
8 8 
8 8 
8 8 
8 8 
8 8 
8 8 
8 8 
8 8 
8 8 
8 8 
8 8 
8 8 
8 8 
8 8 
8 8 
8 8 
8 8 
8 8 
8 8 
8 8 
8 8 
8 8 
8 8 
8 8 
8 8 
8 8 
8 8 
8 8 
8 8 
8 8 
8 8 
8 8 
8 8 
8 8 
8 8 
8 8 
8 8 
8 8 
8 8 
8 8 
8 8 
8 8 
8 8 
8 8 
8 8 
8 8 
8 8 
8 8 
8 8 
8 8 
8 8 
8 8 
8 8 
8 8 
8 8 
8 8 
8 8 
8 8 
8 8 
8 8 
8 8 
8 8 
8 8 
8 8 
8 8 
8 8 
8 8 
8 8 
8 8 
8 8 
8 8 
8 8 
8 8 
8 8 
8 8 
8 8 
8 8 
8 8 
8 8 
8 8 
8 8 
8 8 
8 8 
8 8 
8 8 
8 8 
8 8 
8 8 
8 8 
8 8 
8 8 
8 8 
8 8 
8 8 
8 8 
8 8 
8 8 
8 8 
8 8 
8 8 
8 8 
8 8 
8 8 
8 8 
8 8 
8 8 
8 8 
8 8 
8 8 
8 8 
8 8 
8 8 
8 8 
8 8 
8 8 
8 8 
8 8 
8 8 
8 8 
8 8 
8 8 
8 8 
8 8 
8 8 
8 8 
8 8 
8 8 
8 8 
8 8 
8 8 
8 8 
8 8 
8 8 
8 8 
8 8 
8 8 
8 8 
8 8 
8 8 
8 8 
8 8 
8 8 
8 8 
8 8 
8 8 
8 8 
8 8 
8 8 
8 8 
8 8 
8 8 
8 8 
8 8 
8 8 
8 8 
8 8 
8 8 
8 8 
8 8 
8 8 
8 8 
8 8 
8 8 
8 8 
8 8 
8 8 
8 8 
8 8 
8 8 
8 8 
8 8 
8 8 
8 8 
8 8 
8 8 
8 8 
8 8 
8 8 
8 8 
8 8 
8 8 
8 8 
8 8 
8 8 
8 8 
8 8 
8 8 
8 8 
8 8 
8 8 
8 8 
8 8 
8 8 
8 8 
8 8 
8 8 
8 8 
8 8 
8 8 
8 8 
8 8 
8 8 
8 8 
8 8 
8 8 
8 8 
8 8 
8 8 
8 8 
8 8 
8 8 
8 8 
8 8 
8 8 
8 8 
8 8 
8 8 
8 8 
8 8 
8 8 
8 8 
8 8 
8 8 
8 8 
8 8 
8 8 
8 8 
8 8 
8 8 
8 8 
8 8 
8 8 
8 8 
8 8 
8 8 
8 8 
8 8 
8 8 
8 8 
8 8 
8 8 
8 8 
8 8 
8 8 
8 8 
8 8 
8 8 
8 8 
8 8 
8 8 
8 8 
8 8 
8 8 
8 8 
8 8 
8 8 
8 8 
8 8 
8 8 
8 8 
8 8 
8 8 
8 8 
8 8 
8 8 
8 8 
8 8 
8 8 
8 8 
8 8 
8 8 
8 8 
8 8 
8 8 
8 8 
8 8 
8 8 
8 8 
8 8 
8 8 
8 8 
8 8 
8 8 
8 8 
8 8 
8 8 
8 8 
8 8 
8 8 
8 8 
8 8 
8 8 
8 8 
8 8 
8 8 
8 8 
8 8 
8 8 
8 8 
8 8 
8 8 
8 8 
8 8 
8 8 
8 8 
8 8 
8 8 
8 8 
8 8 
8 8 
8 8 
8 8 
8 8 
8 8 
8 8 
8 8 
8 8 
8 8 
8 8 
8 8 
8 8 
8 8 
8 8 
8 8 
8 8 
8 8 
8 8 
8 8 
8 8 
8 8 
8 8 
8 8 
8 8 
8 8 
8 8 
8 8 
8 8 
8 8 
8 8 
8 8 
8 8 
8 8 
8 8 
8 8 
8 8 
8 8 
8 8 
8 8 
8 8 
8 8 
8 8 
8 8 
8 8 
8 8 
8 8 
8 8 
8 8 
8 8 
8 8 
8 8 
8 8 
8 8 
8 8 
8 8 
8 8 
8 8 
8 8 
8 8 
8 8 
8 8 
8 8 
8 8 
8 8 
8 8 
8 8 
8 8 
8 8 
8 8 
8 8 
8 8 
8 8 
8 8 
8 8 
8 8 
8 8 
8 8 
8 8 
8 8 
8 8 
8 8 
8 8 
8 8 
8 8 
8 8 
8 8 
8 8 
8 8 
8 8 
8 8 
8 8 
8 8 
8 8 
8 8 
8 8 
8 8 
8 8 
8 8 
8 8 
8 8 
8 8 
8 8 
8 8 
8 8 
8 8 
8 8 
8 8 
8 8 
8 8 
8 8 
8 8 
8 8 
8 8 
8 8 
8 8 
8 8 
8 8 
8 8 
8 8 
8 8 
8 8 
8 8 
8 8 
8 8 
8 8 
8 8 
8 8 
8 8 
8 8 
8 8 
8 8 
8 8 
8 8 
8 8 
8 8 
8 8 
8 8 
8 8 
8 8 
8 8 
8 8 
8 8 
8 8 
8 8 
8 8 
8 8 
8 8 
8 8 
8 8 
8 8 
8 8 
8 8 
8 8 
8 8 
8 8 
8 8 
8 8 
8 8 
8 8 
8 8 
8 8 
8 8 
8 8 
8 8 
8 8 
8 8 
8 8 
8 8 
8 8 
8 8 
8 8 
8 8 
8 8 
8 8 
8 8 
8 8 
8 8 
8 8 
8 8 
8 8 
8 8 
8 8 
8 8 
8 8 
8 8 
8 8 
8 8 
8 8 
8 8 
8 8 
8 8 
8 8 
8 8 
8 8 
8 8 
8 8 
8 8 
8 8 
8 8 
8 8 
8 8 
8 8 
8 8 
8 8 
8 8 
8 8 
8 8 
8 8 
8 8 
8 8 
8 8 
8 8 
8 8 
8 8 
8 8 
8 8 
8 8 
8 8 
8 8 
8 8 
8 8 
8 8 
8 8 
8 8 
8 8 
8 8 
8 8 
8 8 
8 8 
8 8 
8 8 
8 8 
8 8 
8 8 
8 8 
8 8 
8 8 
8 8 
8 8 
8 8 
8 8 
8 8 
8 8 
8 8 
8 8 
8 8 
8 8 
8 8 
8 8 
8 8 
8 8 
8 8 
8 8 
8 8 
8 8 
8 8 
8 8 
8 8 
8 8 
8 8 
8 8 
8 8 
8 8 
8 8 
8 8 
8 8 
8 8 
8 8 
8 8 
8 8 
8 8 
8 8 
8 8 
8 8 
8 8 
8 8 
8 8 
8 8 
8 8 
8 8 
8 8 
8 8 
8 8 
8 8 
8 8 
8 8 
8 8 
8 8 
8 8 
8 8 
8 8 
8 8 
8 8 
8 8 
8 8 
8 8 
8 8 
8 8 
8 8 
8 8 
8 8 
8 8 
8 8 
8 8 
8 8 
8 8 
8 8 
8 8 
8 8 
8 8 
8 8 
8 8 
8 8 
8 8 
8 8 
8 8 
8 8 
8 8 
8 8 
8 8 
8 8 
8 8 
8 8 
8 8 
8 8 
8 8 
8 8 
8 8 
8 8 
8 8 
8 8 
8 8 
8 8 
8 8 
8 8 
8 8 
8 8 
8 8 
8 8 
8 8 
8 8 
8 8 
8 8 
8 8 
8 8 
8 8 
8 8 
8 8 
8 8 
8 8 
8 8 
8 8 
8 8 
8 8 
8 8 
8 8 
8 8 
8 8 
8 8 
8 8 
8 8 
8 8 
8 8 
8 8 
8 8 
8 8 
8 8 
8 8 
8 8 
8 8 
8 8 
8 8 
8 8 
8 8 
8 8 
8 8 
8 8 
8 8 
8 8 
8 8 
8 8 
8 8 
8 8 
8 8 
8 8 
8 8 
8 8 
8 8 
8 8 
8 8 
8 8 
8 8 
8 8 
8 8 
8 8 
8 8 
8 8 
8 8 
8 8 
8 8 
8 8 
8 8 
8 8 
8 8 
8 8 
8 8 
8 8 
8 8 
8 8 
8 8 
8 8 
8 8 
8 8 
8 8 
8 8 
8 8 
8 8 
8 8 
8 8 
8 8 
8 8 
8 8 
8 8 
8 8 
8 8 
8 8 
8 8 
8 8 
8 8 
8 8 
8 8 
8 8 
8 8 
8 8 
8 8 
8 8 
8 8 
8 8 
8 8 
8 8 
8 8 
8 8 
8 8 
8 8 
8 8 
8 8 
8 8 
8 8 
8 8 
8 8 
8 8 
8 8 
8 8 
8 8 
8 8 
8 8 
8 8 
8 8 
8 8 
8 8 
8 8 
8 8 
8 8 
8 8 
8 8 
8 8 
8 8 
8 8 
8 8 
8 8 
8 8 
8 8 
8 8 
8 8 
8 8 
8 8 
8 8 
8 8 
8 8 
8 8 
8 8 
8 8 
8 8 
8 8 
8 8 
8 8 
8 8 
8 8 
8 8 
8 8 
8 8 
8 8 
8 8 
8 8 
8 8 
8 8 
8 8 
8 8 
8 8 
8 8 
8 8 
8 8 
8 8 
8 8 
8 8 
8 8 
8 8 
8 8 
8 8 
8 8 
8 8 
8 8 
8 8 
8 8 
8 8 
8 8 
8 8 
8 8 
8 8 
8 8 
8 8 
8 8 
8 8 
8 8 
8 8 
8 8 
8 8 
8 8 
8 8 
8 8 
8 8 
8 8 
8 8 
8 8 
8 8 
8 8 
8 8 
8 8 
8 8 
8 8 
8 8 
8 8 
8 8 
8 8 
8 8 
8 8 
8 8 
8 8 
8 8 
8 8 
8 8 
8 8 
8 8 
8 8 
8 8 
8 8 
8 8 
8 8 
8 8 
8 8 
8 8 
8 8 
8 8 
8 8 
8 8 
8 8 
8 8 
8 8 
8 8 
8 8 
8 8 
8 8 
8 8 
8 8 
8 8 
8 8 
8 8 
8 8 
8 8 
8 8 
8 8 
8 8 
8 8 
8 8 
8 8 
8 8 
8 8 
8 8 
8 8 
8 8 
8 8 
8 8 
8 8 
8 8 
8 8 
8 8 
8 8 
8 8 
8 8 
8 8 
8 8 
8 8 
8 8 
8 8 
8 8 
8 8 
8 8 
8 8 
8 8 
8 8 
8 8 
8 8 
8 8 
8 8 
8 8 
8 8 
8 8 
8 8 
8 8 
8 8 
8 8 
8 8 
8 8 
8 8 
8 8 
8 8 
8 8 
8 8 
8 8 
8 8 
8 8 
8 8 
8 8 
8 8 
8 8 
8 8 
8 8 
8 8 
8 8 
8 8 
8 8 
8 8 
8 8 
8 8 
8 8 
8 8 
8 8 
8 8 
8 8 
8 8 
8 8 
8 8 
8 8 
8 8 
8 8 
8 8 
8 8 
8 8 
8 8 
8 8 
8 8 
8 8 
8 8 
8 8 
8 8 
8 8 
8 8 
8 8 
8 8 
8 8 
8 8 
8 8 
8 8 
8 8 
8 8 
8 8 
8 8 
8 8 
8 8 
8 8 
8 8 
8 8 
8 8 
8 8 
8 8 
8 8 
8 8 
8 8 
8 8 
8 8 
8 8 
8 8 
8 8 
8 8 
8 8 
8 8 
8 8 
8 8 
8 8 
8 8 
8 8 
8 8 
8 8 
8 8 
8 8 
8 8 
8 8 
8 8 
8 8 
8 8 
8 8 
8 8 
8 8 
8 8 
8 8 
8 8 
8 8 
8 8 
8 8 
8 8 
8 8 
8 8 
8 8 
8 8 
8 8 
8 8 
8 8 
8 8 
8 8 
8 8 
8 8 
8 8 
8 8 
8 8 
8 8 
8 8 
8 8 
8 8 
8 8 
8 8 
8 8 
8 8 
8 8 
8 8 
8 8 
8 8 
8 8 
8 8 
8 8 
8 8 
8 8 
8 8 
8 8 
8 8 
8 8 
8 8 
8 8 
8 8 
8 8 
8 8 
8 8 
8 8 
8 8 
8 8 
8 8 
8 8 
8 8 
8 8 
8 8 
8 8 
8 8 
8 8 
8 8 
8 8 
8 8 
8 8 
8 8 
8 8 
8 8 
8 8 
8 8 
8 8 
8 8 
8 8 
8 8 
8 8 
8 8 
8 8 
8 8 
8 8 
8 8 
8 8 
8 8 
8 8 
8 8 
8 8 
8 8 
8 8 
8 8 
8 8 
8 8 
8 8 
8 8 
8 8 
8 8 
8 8 
8 8 
8 8 
8 8 
8 8 
8 8 
8 8 
8 8 
8 8 
8 8 
8 8 
8 8 
8 8 
8 8 
8 8 
8 8 
8 8 
8 8 
8 8 
8 8 
8 8 
8 8 
8 8 
8 8 
8 8 
8 8 
8 8 
8 8 
8 8 
8 8 
8 8 
8 8 
8 8 
8 8 
8 8 
8 8 
8 8 
8 8 
8 8 
8 8 
8 8 
8 8 
8 8 
8 8 
8 8 
8 8 
8 8 
8 8 
8 8 
8 8 
8 8 
8 8 
8 8 
8 8 
8 8 
8 8 
8 8 
8 8 
8 8 
8 8 
8 8 
8 8 
8 8 
8 8 
8 8 
8 8 
8 8 
8 8 
8 8 
8 8 
8 8 
8 8 
8 8 
8 8 
8 8 
8 8 
8 8 
8 8 
8 8 
8 8 
8 8 
8 8 
8 8 
8 8 
8 8 
8 8 
8 8 
8 8 
8 8 
8 8 
8 8 
8 8 
8 8 
8 8 
8 8 
8 8 
8 8 
8 8 
8 8 
8 8 
8 8 
8 8 
8 8 
8 8 
8 8 
8 8 
8 8 
8 8 
8 8 
8 8 
8 8 
8 8 
8 8 
8 8 
8 8 
8 8 
8 8 
8 8 
8 8 
8 8 
8 8 
8 8 
8 8 
8 8 
8 8 
8 8 
8 8 
8 8 
8 8 
8 8 
8 8 
8 8 
8 8 
8 8 
8 8 
8 8 
8 8 
8 8 
8 8 
8 8 
8 8 
8 8 
8 8 
8 8 
8 8 
8 8 
8 8 
8 8 
8 8 
8 8 
8 8 
8 8 
8 8 
8 8 
8 8 
8 8 
8 8 
8 8 
8 8 
8 8 
8 8 
8 8 
8 8 
8 8 
8 8 
8 8 
8 8 
8 8 
8 8 
8 8 
8 8 
8 8 
8 8 
8 8 
8 8 
8 8 
8 8 
8 8 
8 8 
8 8 
8 8 
8 8 
8 8 
8 8 
8 8 
8 8 
8 8 
8 8 
8 8 
8 8 
8 8 
8 8 
8 8 
8 8 
8 8 
8 8 
8 8 
8 8 
8 8 
8 8 
8 8 
8 8 
8 8 
8 8 
8 8 
8 8 
8 8 
8 8 
8 8 
8 8 
8 8 
8 8 
8 8 
8 8 
8 8 
8 8 
8 8 
8 8 
8 8 
8 8 
8 8 
8 8 
8 8 
8 8 
8 8 
8 8 
8 8 
8 8 
8 8 
8 8 
8 8 
8 8 
8 8 
8 8 
8 8 
8 8 
8 8 
8 8 
8 8 
8 8 
8 8 
8 8 
8 8 
8 8 
8 8 
8 8 
8 8 
8 8 
8 8 
8 8 
8 8 
8 8 
8 8 
8 8 
8 8 
8 8 
8 8 
8 8 
8 8 
8 8 
8 8 
8 8 
8 8 
8 8 
8 8 
8 8 
8 8 
8 8 
8 8 
8 8 
8 8 
8 8 
8 8 
8 8 
8 8 
8 8 
8 8 
8 8 
8 8 
8 8 
8 8 
8 8 
8 8 
8 8 
8 8 
8 8 
8 8 
8 8 
8 8 
8 8 
8 8 
8 8 
8 8 
8 8 
8 8 
8 8 
8 8 
8 8 
8 8 
8 8 
8 8 
8 8 
8 8 
8 8 
8 8 
8 8 
8 8 
8 8 
8 8 
8 8 
8 8 
8 8 
8 8 
8 8 
8 8 
8 8 
8 8 
8 8 
8 8 
8 8 
8 8 
8 8 
8 8 
8 8 
8 8 
8 8 
8 8 
8 8 
8 8 
8 8 
8 8 
8 8 
8 8 
8 8 
8 8 
8 8 
8 8 
8 8 
8 8 
8 8 
8 8 
8 8 
8 8 
8 8 
8 8 
8 8 
8 8 
8 8 
8 8 
8 8 
8 8 
8 8 
8 8 
8 8 
8 8 
8 8 
8 8 
8 8 
8 8 
8 8 
8 8 
8 8 
8 8 
8 8 
8 8 
8 8 
8 8 
8 8 
8 8 
8 8 
8 8 
8 8 
8 8 
8 8 
8 8 
8 8 
8 8 
8 8 
8 8 
8 8 
8 8 
8 8 
8 8 
8 8 
8 8 
8 8 
8 8 
8 8 
8 8 
8 8 
8 8 
8 8 
8 8 
8 8 
8 8 
8 8 
8 8 
8 8 
8 8 
8 8 
8 8 
8 8 
8 8 
8 8 
8 8 
8 8 
8 8 
8 8 
8 8 
8 8 
8 8 
8 8 
8 8 
8 8 
8 8 
8 8 
8 8 
8 8 
8 8 
8 8 
8 8 
8 8 
8 8 
8 8 
8 8 
8 8 
8 8 
8 8 
8 8 
8 8 
8 8 
8 8 
8 8 
8 8 
8 8 
8 8 
8 8 
8 8 
8 8 
8 8 
8 8 
8 8 
8 8 
8 8 
8 8 
8 8 
8 8 
8 8 
8 8 
8 8 
8 8 
8 8 
8 8 
8 8 
8 8 
8 8 
8 8 
8 8 
8 8 
8 8 
8 8 
8 8 
8 8 
8 8 
8 8 
8 8 
8 8 
8 8 
8 8 
8 8 
8 8 
8 8 
8 8 
8 8 
8 8 
8 8 
8 8 
8 8 
8 8 
8 8 
8 8 
8 8 
8 8 
8 8 
8 8 
8 8 
8 8 
8 8 
8 8 
8 8 
8 8 
8 8 
8 8 
8 8 
8 8 
8 8 
8 8 
8 8 
8 8 
8 8 
8 8 
8 8 
8 8 
8 8 
8 8 
8 8 
8 8 
8 8 
8 8 
8 8 
8 8 
8 8 
8 8 
8 8 
8 8 
8 8 
8 8 
8 8 
8 8 
8 8 
8 8 
8 8 
8 8 
8 8 
8 8 
8 8 
8 8 
8 8 
8 8 
8 8 
8 8 
8 8 
8 8 
8 8 
8 8 
8 8 
8 8 
8 8 
8 8 
8 8 
8 8 
8 8 
8 8 
8 8 
8 8 
8 8 
8 8 
8 8 
8 8 
8 8 
8 8 
8 8 
8 8 
8 8 
8 8 
8 8 
8 8 
8 8 
8 8 
8 8 
8 8 
8 8 
8 8 
8 8 
8 8 
8 8 
8 8 
8 8 
8 8 
8 8 
8 8 
8 8 
8 8 
8 8 
8 8 
8 8 
8 8 
8 8 
8 8 
8 8 
8 8 
8 8 
8 8 
8 8 
8 8 
8 8 
8 8 
8 8 
8 8 
8 8 
8 8 
8 8 
8 8 
8 8 
8 8 
8 8 
8 8 
8 8 
8 8 
8 8 
8 8 
8 8 
8 8 
8 8 
8 8 
8 8 
8 8 
8 8 
8 8 
8 8 
8 8 
8 8 
8 8 
8 8 
8 8 
8 8 
8 8 
8 8 
8 8 
8 8 
8 8 
8 8 
8 8 
8 8 
8 8 
8 8 
8 8 
8 8 
8 8 
8 8 
8 8 
8 8 
8 8 
8 8 
8 8 
8 8 
8 8 
8 8 
8 8 
8 8 
8 8 
8 8 
8 8 
8 8 
8 8 
8 8 
8 8 
8 8 
8 8 
8 8 
8 8 
8 8 
8 8 
8 8 
8 8 
8 8 
8 8 
8 8 
8 8 
8 8 
8 8 
8 8 
8 8 
8 8 
8 8 
8 8 
8 8 
8 8 
8 8 
8 8 
8 8 
8 8 
8 8 
8 8 
8 8 
8 8 
8 8 
8 8 
8 8 
8 8 
8 8 
8 8 
8 8 
8 8 
8 8 
8 8 
8 8 
8 8 
8 8 
8 8 
8 8 
8 8 
8 8 
8 8 
8 8 
8 8 
8 8 
8 8 
8 8 
8 8 
8 8 
8 8 
8 8 
8 8 
8 8 
8 8 
8 8 
8 8 
8 8 
8 8 
8 8 
8 8 
8 8 
8 8 
8 8 
8 8 
8 8 
8 8 
8 8 
8 8 
8 8 
8 8 
8 8 
8 8 
8 8 
8 8 
8 8 
8 8 
8 8 
8 8 
8 8 
8 8 
8 8 
8 8 
8 8 
8 8 
8 8 
8 8 
8 8 
8 8 
8 8 
8 8 
8 8 
8 8 
8 8 
8 8 
8 8 
8 8 
8 8 
8 8 
8 8 
8 8 
8 8 
8 8 
8 8 
8 8 
8 8 
8 8 
8 8 
8 8 
8 8 
8 8 
8 8 
8 8 
8 8 
8 8 
8 8 
8 8 
8 8 
8 8 
8 8 
8 8 
8 8 
8 8 
8 8 
8 8 
8 8 
8 8 
8 8 
8 8 
8 8 
8 8 
8 8 
8 8 
8 8 
8 8 
8 8 
8 8 
8 8 
8 8 
8 8 
8 8 
8 8 
8 8 
8 8 
8 8 
8 8 
8 8 
8 8 
8 8 
8 8 
8 8 
8 8 
8 8 
8 8 
8 8 
8 8 
8 8 
8 8 
8 8 
8 8 
8 8 
8 8 
8 8 
8 8 
8 8 
8 8 
8 8 
8 8 
8 8 
8 8 
8 8 
8 8 
8 8 
8 8 
8 8 
8 8 
8 8 
8 8 
8 8 
8 8 
8 8 
8 8 
8 8 
8 8 
8 8 
8 8 
8 8 
8 8 
8 8 
8 8 
8 8 
8 8 
8 8 
8 8 
8 8 
8 8 
8 8 
8 8 
8 8 
8 8 
8 8 
8 8 
8 8 
8 8 
8 8 
8 8 
8 8 
8 8 
8 8 
8 8 
8 8 
8 8 
8 8 
8 8 
8 8 
8 8 
8 8 
8 8 
8 8 
8 8 
8 8 
8 8 
8 8 
8 8 
8 8 
8 8 
8 8 
8 8 
8 8 
8 8 
8 8 
8 8 
8 8 
8 8 
8 8 
8 8 
8 8 
8 8 
8 8 
8 8 
8 8 
8 8 
8 8 
8 8 
8 8 
8 8 
8 8 
8 8 
8 8 
8 8 
8 8 
8 8 
8 8 
8 8 
8 8 
8 8 
8 8 
8 8 
8 8 
8 8 
8 8 
8 8 
8 8 
8 8 
8 8 
8 8 
8 8 
8 8 
8 8 
8 8 
8 8 
8 8 
8 8 
8 8 
8 8 
8 8 
8 8 
8 8 
8 8 
8 8 
8 8 
8 8 
8 8 
8 8 
8 8 
8 8 
8 8 
8 8 
8 8 
8 8 
8 8 
8 8 
8 8 
8 8 
8 8 
8 8 
8 8 
8 8 
8 8 
8 8 
8 8 
8 8 
8 8 
8 8 
8 8 
8 8 
8 8 
8 8 
8 8 
8 8 
8 8 
8 8 
8 8 
8 8 
8 8 
8 8 
8 8 
8 8 
8 8 
8 8 
8 8 
8 8 
8 8 
8 8 
8 8 
8 8 
8 8 
8 8 
8 8 
8 8 
8 8 
8 8 
8 8 
8 8 
8 8 
8 8 
8 8 
8 8 
8 8 
8 8 
8 8 
8 8 
8 8 
8 8 
8 8 
8 8 
8 8 
8 8 
8 8 
8 8 
8 8 
8 8 
8 8 
8 8 
8 8 
8 8 
8 8 
8 8 
8 8 
8 8 
8 8 
8 8 
8 8 
8 8 
8 8 
8 8 
8 8 
8 8 
8 8 
8 8 
8 8 
8 8 
8 8 
8 8 
8 8 
8 8 
8 8 
8 8 
8 8 
8 8 
8 8 
8 8 
8 8 
8 8 
8 8 
8 8 
8 8 
8 8 
8 8 
8 8 
8 8 
8 8 
8 8 
8 8 
8 8 
8 8 
8 8 
8 8 
8 8 
8 8 
8 8 
8 8 
8 8 
8 8 
8 8 
8 8 
8 8 
8 8 
8 8 
8 8 
8 8 
8 8 
8 8 
8 8 
8 8 
8 8 
8 8 
8 8 
8 8 
8 8 
8 8 
8 8 
8 8 
8 8 
8 8 
8 8 
8 8 
8 8 
8 8 
8 8 
8 8 
8 8 
8 8 
8 8 
8 8 
8 8 
8 8 
8 8 
8 8 
8 8 
8 8 
8 8 
8 8 
8 8 
8 8 
8 8 
8 8 
8 8 
8 8 
8 8 
8 8 
8 8 
8 8 
8 8 
8 8 
8 8 
8 8 
8 8 
8 8 
8 8 
8 8 
8 8 
8 8 
8 8 
8 8 
8 8 
8 8 
8 8 
8 8 
8 8 
8 8 
8 8 
8 8 
8 8 
8 8 
8 8 
8 8 
8 8 
8 8 
8 8 
8 8 
8 8 
8 8 
8 8 
8 8 
8 8 
8 8 
8 8 
8 8 
8 8 
8 8 
8 8 
8 8 
8 8 
8 8 
8 8 
8 8 
8 8 
8 8 
8 8 
8 8 
8 8 
8 8 
8 8 
8 8 
8 8 
8 8 
8 8 
8 8 
8 8 
8 8 
8 8 
8 8 
8 8 
8 8 
8 8 
8 8 
8 8 
8 8 
8 8 
8 8 
8 8 
8 8 
8 8 
8 8 
8 8 
8 8 
8 8 
8 8 
8 8 
8 8 
8 8 
8 8 
8 8 
8 8 
8 8 
8 8 
8 8 
8 8 
8 8 
8 8 
8 8 
8 8 
8 8 
8 8 
8 8 
8 8 
8 8 
8 8 
8 8 
8 8 
8 8 
8 8 
8 8 
8 8 
8 8 
8 8 
8 8 
8 8 
8 8 
8 8 
8 8 
8 8 
8 8 
8 8 
8 8 
8 8 
8 8 
8 8 
8 8 
8 8 
8 8 
8 8 
8 8 
8 8 
8 8 
8 8 
8 8 
8 8 
8 8 
8 8 
8 8 
8 8 
8 8 
8 8 
8 8 
8 8 
8 8 
8 8 
8 8 
8 8 
8 8 
8 8 
8 8 
8 8 
8 8 
8 8 
8 8 
8 8 
8 8 
8 8 
8 8 
8 8 
8 8 
8 8 
8 8 
8 8 
8 8 
8 8 
8 8 
8 8 
8 8 
8 8 
8 8 
8 8 
8 8 
8 8 
8 8 
8 8 
8 8 
8 8 
8 8 
8 8 
8 8 
8 8 
8 8 
8 8 
8 8 
8 8 
8 8 
8 8 
8 8 
8 8 
8 8 
8 8 
8 8 
8 8 
8 8 
8 8 
8 8 
8 8 
8 8 
8 8 
8 8 
8 8 
8 8 
8 8 
8 8 
8 8 
8 8 
8 8 
8 8 
8 8 
8 8 
8 8 
8 8 
8 8 
8 8 
8 8 
8 8 
8 8 
8 8 
8 8 
8 8 
8 8 
8 8 
8 8 
8 8 
8 8 
8 8 
8 8 
8 8 
8 8 
8 8 
8 8 
8 8 
8 8 
8 8 
8 8 
8 8 
8 8 
8 8 
8 8 
8 8 
8 8 
8 8 
8 8 
8 8 
8 8 
8 8 
8 8 
8 8 
8 8 
8 8 
8 8 
8 8 
8 8 
8 8 
8 8 
8 8 
8 8 
8 8 
8 8 
8 8 
8 8 
8 8 
8 8 
8 8 
8 8 
8 8 
8 8 
8 8 
8 8 
8 8 
8 8 
8 8 
8 8 
8 8 
8 8 
8 8 
8 8 
8 8 
8 8 
8 8 
8 8 
8 8 
8 8 
8 8 
8 8 
8 8 
8 8 
8 8 
8 8 
8 8 
8 8 
8 8 
8 8 
8 8 
8 8 
8 8 
8 8 
8 8 
8 8 
8 8 
8 8 
8 8 
8 8 
8 8 
8 8 
8 8 
8 8 
8 8 
8 8 
8 8 
8 8 
8 8 
8 8 
8 8 
8 8 
8 8 
8 8 
8 8 
8 8 
8 8 
8 8 
8 8 
8 8 
8 8 
8 8 
8 8 
8 8 
8 8 
8 8 
8 8 
8 8 
8 8 
8 8 
8 8 
8 8 
8 8 
8 8 
8 8 
8 8 
8 8 
8 8 
8 8 
8 8 
8 8 
8 8 
8 8 
8 8 
8 8 
8 8 
8 8 
8 8 
8 8 
8 8 
8 8 
8 8 
8 8 
8 8 
8 8 
8 8 
8 8 
8 8 
8 8 
8 8 
8 8 
8 8 
8 8 
8 8 
8 8 
8 8 
8 8 
8 8 
8 8 
8 8 
8 8 
8 8 
8 8 
8 8 
8 8 
8 8 
8 8 
8 8 
8 8 
8 8 
8 8 
8 8 
8 8 
8 8 
8 8 
8 8 
8 8 
8 8 
8 8 
8 8 
8 8 
8 8 
8 8 
8 8 
8 8 
8 8 
8 8 
8 8 
8 8 
8 8 
8 8 
8 8 
8 8 
8 8 
8 8 
8 8 
8 8 
8 8 
8 8 
8 8 
8 8 
8 8 
8 8 
8 8 
8 8 
8 8 
8 8 
8 8 
8 8 
8 8 
8 8 
8 8 
8 8 
8 8 
8 8 
8 8 
8 8 
8 8 
8 8 
8 8 
8 8 
8 8 
8 8 
8 8 
8 8 
8 8 
8 8 
8 8 
8 8 
8 8 
8 8 
8 8 
8 8 
8 8 
8 8 
8 8 
8 8 
8 8 
8 8 
8 8 
8 8 
8 8 
8 8 
8 8 
8 8 
8 8 
8 8 
8 8 
8 8 
8 8 
8 8 
8 8 
8 8 
8 8 
8 8 
8 8 
8 8 
8 8 
8 8 
8 8 
8 8 
8 8 
8 8 
8 8 
8 8 
8 8 
8 8 
8 8 
8 8 
8 8 
8 8 
8 8 
8 8 
8 8 
8 8 
8 8 
8 8 
8 8 
8 8 
8 8 
8 8 
8 8 
8 8 
8 8 
8 8 
8 8 
8 8 
8 8 
8 8 
8 8 
8 8 
8 8 
8 8 
8 8 
8 8 
8 8 
8 8 
8 8 
8 8 
8 8 
8 8 
8 8 
8 8 
8 8 
8 8 
8 8 
8 8 
8 8 
8 8 
8 8 
8 8 
8 8 
8 8 
8 8 
8 8 
8 8 
8 8 
8 8 
8 8 
8 8 
8 8 
8 8 
8 8 
8 8 
8 8 
8 8 
8 8 
8 8 
8 8 
8 8 
8 8 
8 8 
8 8 
8 8 
8 8 
8 8 
8 8 
8 8 
8 8 
8 8 
8 8 
8 8 
8 8 
8 8 
8 8 
8 8 
8 8 
8 8 
8 8 
8 8 
8 8 
8 8 
8 8 
8 8 
8 8 
8 8 
8 8 
8 8 
8 8 
8 8 
8 8 
8 8 
8 8 
8 8 
8 8 
8 8 
8 8 
8 8 
8 8 
8 8 
8 8 
8 8 
8 8 
8 8 
8 8 
8 8 
8 8 
8 8 
8 8 
8 8 
8 8 
8 8 
8 8 
8 8 
8 8 
8 8 
8 8 
8 8 
8 8 
8 8 
8 8 
8 8 
8 8 
8 8 
8 8 
8 8 
8 8 
8 8 
8 8 
8 8 
8 8 
8 8 
8 8 
8 8 
8 8 
8 8 
8 8 
8 8 
8 8 
8 8 
8 8 
8 8 
8 8 
8 8 
8 8 
8 8 
8 8 
8 8 
8 8 
8 8 
8 8 
8 8 
8 8 
8 8 
8 8 
8 8 
8 8 
8 8 
8 8 
8 8 
8 8 
8 8 
8 8 
8 8 
8 8 
8 8 
8 8 
8 8 
8 8 
8 8 
8 8 
8 8 
8 8 
8 8 
8 8 
8 8 
8 8 
8 8 
8 8 
8 8 
8 8 
8 8 
8 8 
8 8 
8 8 
8 8 
8 8 
8 8 
8 8 
8 8 
8 8 
8 8 
8 8 
8 8 
8 8 
8 8 
8 8 
8 8 
8 8 
8 8 
8 8 
8 8 
8 8 
8 8 
8 8 
8 8 
8 8 
8 8 
8 8 
8 8 
8 8 
8 8 
8 8 
8 8 
8 8 
8 8 
8 8 
8 8 
8 8 
8 8 
8 8 
8 8 
8 8 
8 8 
8 8 
8 8 
8 8 
8 8 
8 8 
8 8 
8 8 
8 8 
8 8 
8 8 
8 8 
8 8 
8 8 
8 8 
8 8 
8 8 
8 8 
8 8 
8 8 
8 8 
8 8 
8 8 
8 8 
8 8 
8 8 
8 8 
8 8 
8 8 
8 8 
8 8 
8 8 
8 8 
8 8 
8 8 
8 8 
8 8 
8 8 
8 8 
8 8 
8 8 
8 8 
8 8 
8 8 
8 8 
8 8 
8 8 
8 8 
8 8 
8 8 
8 8 
8 8 
8 8 
8 8 
8 8 
8 8 
8 8 
8 8 
8 8 
8 8 
8 8 
8 8 
8 8 
8 8 
8 8 
8 8 
8 8 
8 8 
8 8 
8 8 
8 8 
8 8 
8 8 
8 8 
8 8 
8 8 
8 8 
8 8 
8 8 
8 8 
8 8 
8 8 
8 8 
8 8 
8 8 
8 8 
8 8 
8 8 
8 8 
8 8 
8 8 
8 8 
8 8 
8 8 
8 8 
8 8 
8 8 
8 8 
8 8 
8 8 
8 8 
8 8 
8 8 
8 8 
8 8 
8 8 
8 8 
8 8 
8 8 
8 8 
8 8 
8 8 
8 8 
8 8 
8 8 
8 8 
8 8 
8 8 
8 8 
8 8 
8 8 
8 8 
8 8 
8 8 
8 8 
8 8 
8 8 
8 8 
8 8 
8 8 
8 8 
8 8 
8 8 
8 8 
8 8 
8 8 
8 8 
8 8 
8 8 
8 8 
8 8 
8 8 
8 8 
8 8 
8 8 
8 8 
8 8 
8 8 
8 8 
8 8 
8 8 
8 8 
8 8 
8 8 
8 8 
8 8 
8 8 
8 8 
8 8 
8 8 
8 8 
8 8 
8 8 
8 8 
8 8 
8 8 
8 8 
8 8 
8 8 
8 8 
8 8 
8 8 
8 8 
8 8 
8 8 
8 8 
8 8 
8 8 
8 8 
8 8 
8 8 
8 8 
8 8 
8 8 
8 8 
8 8 
8 8 
8 8 
8 8 
8 8 
8 8 
8 8 
8 8 
8 8 
8 8 
8 8 
8 8 
8 8 
8 8 
8 8 
8 8 
8 8 
8 8 
8 8 
8 8 
8 8 
8 8 
8 8 
8 8 
8 8 
8 8 
8 8 
8 8 
8 8 
8 8 
8 8 
8 8 
8 8 
8 8 
8 8 
8 8 
8 8 
8 8 
8 8 
8 8 
8 8 
8 8 
8 8 
8 8 
8 8 
8 8 
8 8 
8 8 
8 8 
8 8 
8 8 
8 8 
8 8 
8 8 
8 8 
8 8 
8 8 
8 8 
8 8 
8 8 
8 8 
8 8 
8 8 
8 8 
8 8 
8 8 
8 8 
8 8 
8 8 
8 8 
8 8 
8 8 
8 8 
8 8 
8 8 
8 8 
8 8 
8 8 
8 8 
8 8 
8 8 
8 8 
8 8 
8 8 
8 8 
8 8 
8 8 
8 8 
8 8 
8 8 
8 8 
8 8 
8 8 
8 8 
8 8 
8 8 
8 8 
8 8 
8 8 
8 8 
8 8 
8 8 
8 8 
8 8 
8 8 
8 8 
8 8 
8 8 
8 8 
8 8 
8 8 
8 8 
8 8 
8 8 
8 8 
8 8 
8 8 
8 8 
8 8 
8 8 
8 8 
8 8 
8 8 
8 8 
8 8 
8 8 
8 8 
8 8 
8 8 
8 8 
8 8 
8 8 
8 8 
8 8 
8 8 
8 8 
8 8 
8 8 
8 8 
8 8 
8 8 
8 8 
8 8 
8 8 
8 8 
8 8 
8 8 
8 8 
8 8 
8 8 
8 8 
8 8 
8 8 
8 8 
8 8 
8 8 
8 8 
8 8 
8 8 
8 8 
8 8 
8 8 
8 8 
8 8 
8 8 
8 8 
8 8 
8 8 
8 8 
8 8 
8 8 
8 8 
8 8 
8 8 
8 8 
8 8 
8 8 
8 8 
8 8 
8 8 
8 8 
8 8 
8 8 
8 8 
8 8 
8 8 
8 8 
8 8 
8 8 
8 8 
8 8 
8 8 
8 8 
8 8 
8 8 
8 8 
8 8 
8 8 
8 8 
8 8 
8 8 
8 8 
8 8 
8 8 
8 8 
8 8 
8 8 
8 8 
8 8 
8 8 
8 8 
8 8 
8 8 
8 8 
8 8 
8 8 
8 8 
8 8 
8 8 
8 8 
8 8 
8 8 
8 8 
8 8 
8 8 
8 8 
8 8 
8 8 
8 8 
8 8 
8 8 
8 8 
8 8 
8 8 
8 8 
8 8 
8 8 
8 8 
8 8 
8 8 
8 8 
8 8 
8 8 
8 8 
8 8 
8 8 
8 8 
8 8 
8 8 
8 8 
8 8 
8 8 
8 8 
8 8 
8 8 
8 8 
8 8 
8 8 
8 8 
8 8 
8 8 
8 8 
8 8 
8 8 
8 8 
8 8 
8 8 
8 8 
8 8 
8 8 
8 8 
8 8 
8 8 
8 8 
8 8 
8 8 
8 8 
8 8 
8 8 
8 8 
8 8 
8 8 
8 8 
8 8 
8 8 
8 8 
8 8 
8 8 
8 8 
8 8 
8 8 
8 8 
8 8 
8 8 
8 8 
8 8 
8 8 
8 8 
8 8 
8 8 
8 8 
8 8 
8 8 
8 8 
8 8 
8 8 
8 8 
8 8 
8 8 
8 8 
8 8 
8 8 
8 8 
8 8 
8 8 
8 8 
8 8 
8 8 
8 8 
8 8 
8 8 
8 8 
8 8 
8 8 
8 8 
8 8 
8 8 
8 8 
8 8 
8 8 
8 8 
8 8 
8 8 
8 8 
8 8 
8 8 
8 8 
8 8 
8 8 
8 8 
8 8 
8 8 
8 8 
8 8 
8 8 
8 8 
8 8 
8 8 
8 8 
8 8 
8 8 
8 8 
8 8 
8 8 
8 8 
8 8 
8 8 
8 8 
8 8 
8 8 
8 8 
8 8 
8 8 
8 8 
8 8 
8 8 
8 8 
8 8 
8 8 
8 8 
8 8 
8 8 
8 8 
8 8 
8 8 
8 8 
8 8 
8 8 
8 8 
8 8 
8 8 
8 8 
8 8 
8 8 
8 8 
8 8 
8 8 
8 8 
8 8 
8 8 
8 8 
8 8 
8 8 
8 8 
8 8 
8 8 
8 8 
8 8 
8 8 
8 8 
8 8 
8 8 
8 8 
8 8 
8 8 
8 8 
8 8 
8 8 
8 8 
8 8 
8 8 
8 8 
8 8 
8 8 
8 8 
8 8 
8 8 
8 8 
8 8 
8 8 
8 8 
8 8 
8 8 
8 8 
8 8 
8 8 
8 8 
8 8 
8 8 
8 8 
8 8 
8 8 
8 8 
8 8 
8 8 
8 8 
8 8 
8 8 
8 8 
8 8 
8 8 
8 8 
8 8 
8 8 
8 8 
8 8 
8 8 
8 8 
8 8 
8 8 
8 8 
8 8 
8 8 
8 8 
8 8 
8 8 
8 8 
8 8 
8 8 
8 8 
8 8 
8 8 
8 8 
8 8 
8 8 
8 8 
8 8 
8 8 
8 8 
8 8 
8 8 
8 8 
8 8 
8 8 
8 8 
8 8 
8 8 
8 8 
8 8 
8 8 
8 8 
8 8 
8 8 
8 8 
8 8 
8 8 
8 8 
8 8 
8 8 
8 8 
8 8 
8 8 
8 8 
8 8 
8 8 
8 8 
8 8 
8 8 
8 8 
8 8 
8 8 
8 8 
8 8 
8 8 
8 8 
8 8 
8 8 
8 8 
8 8 
8 8 
8 8 
8 8 
8 8 
8 8 
8 8 
8 8 
8 8 
8 8 
8 8 
8 8 
8 8 
8 8 
8 8 
8 8 
8 8 
8 8 
8 8 
8 8 
8 8 
8 8 
8 8 
8 8 
8 8 
8 8 
8 8 
8 8 
8 8 
8 8 
8 8 
8 8 
8 8 
8 8 
8 8 
8 8 
8 8 
8 8 
8 8 
8 8 
8 8 
8 8 
8 8 
8 8 
8 8 
8 8 
8 8 
8 8 
8 8 
8 8 
8 8 
8 8 
8 8 
8 8 
8 8 
8 8 
8 8 
8 8 
8 8 
8 8 
8 8 
8 8 
8 8 
8 8 
8 8 
8 8 
8 8 
8 8 
8 8 
8 8 
8 8 
8 8 
8 8 
8 8 
8 8 
8 8 
8 8 
8 8 
8 8 
8 8 
8 8 
8 8 
8 8 
8 8 
8 8 
8 8 
8 8 
8 8 
8 8 
8 8 
8 8 
8 8 
8 8 
8 8 
8 8 
8 8 
8 8 
8 8 
8 8 
8 8 
8 8 
8 8 
8 8 
8 8 
8 8 
8 8 
8 8 
8 8 
8 8 
8 8 
8 8 
8 8 
8 8 
8 8 
8 8 
8 8 
8 8 
8 8 
8 8 
8 8 
8 8 
8 8 
8 8 
8 8 
8 8 
8 8 
8 8 
8 8 
8 8 
8 8 
8 8 
8 8 
8 8 
8 8 
8 8 
8 8 
8 8 
8 8 
8 8 
8 8 
8 8 
8 8 
8 8 
8 8 
8 8 
8 8 
8 8 
8 8 
8 8 
8 8 
8 8 
8 8 
8 8 
8 8 
8 8 
8 8 
8 8 
8 8 
8 8 
8 8 
8 8 
8 8 
8 8 
8 8 
8 8 
8 8 
8 8 
8 8 
8 8 
8 8 
8 8 
8 8 
8 8 
8 8 
8 8 
8 8 
8 8 
8 8 
8 8 
8 8 
8 8 
8 8 
8 8 
8 8 
8 8 
8 8 
8 8 
8 8 
8 8 
8 8 
8 8 
8 8 
8 8 
8 8 
8 8 
8 8 
8 8 
8 8 
8 8 
8 8 
8 8 
8 8 
8 8 
8 8 
8 8 
8 8 
8 8 
8 8 
8 8 
8 8 
8 8 
8 8 
8 8 
8 8 
8 8 
8 8 
8 8 
8 8 
8 8 
8 8 
8 8 
8 8 
8 8 
8 8 
8 8 
8 8 
8 8 
8 8 
8 8 
8 8 
8 8 
8 8 
8 8 
8 8 
8 8 
8 8 
8 8 
8 8 
8 8 
8 8 
8 8 
8 8 
8 8 
8 8 
8 8 
8 8 
8 8 
8 8 
8 8 
8 8 
8 8 
8 8 
8 8 
8 8 
8 8 
8 8 
8 8 
8 8 
8 8 
8 8 
8 8 
8 8 
8 8 
8 8 
8 8 
8 8 
8 8 
8 8 
8 8 
8 8 
8 8 
8 8 
8 8 
8 8 
8 8 
8 8 
8 8 
8 8 
8 8 
8 8 
8 8 
8 8 
8 8 
8 8 
8 8 
8 8 
8 8 
8 8 
8 8 
8 8 
8 8 
8 8 
8 8 
8 8 
8 8 
8 8 
8 8 
8 8 
8 8 
8 8 
8 8 
8 8 
8 8 
8 8 
8 8 
8 8 
8 8 
8 8 
8 8 
8 8 
8 8 
8 8 
8 8 
8 8 
8 8 
8 8 
8 8 
8 8 
8 8 
8 8 
8 8 
8 8 
8 8 
8 8 
8 8 
8 8 
8 8 
8 8 
8 8 
8 8 
8 8 
8 8 
8 8 
8 8 
8 8 
8 8 
8 8 
8 8 
8 8 
8 8 
8 8 
8 8 
8 8 
8 8 
8 8 
8 8 
8 8 
8 8 
8 8 
8 8 
8 8 
8 8 
8 8 
8 8 
8 8 
8 8 
8 8 
8 8 
8 8 
8 8 
8 8 
8 8 
8 8 
8 8 
8 8 
8 8 
8 8 
8 8 
8 8 
8 8 
8 8 
8 8 
8 8 
8 8 
8 8 
8 8 
8 8 
8 8 
8 8 
8 8 
8 8 
8 8 
8 8 
8 8 
8 8 
8 8 
8 8 
8 8 
8 8 
8 8 
8 8 
8 8 
8 8 
8 8 
8 8 
8 8 
8 8 
8 8 
8 8 
8 8 
8 8 
8 8 
8 8 
8 8 
8 8 
8 8 
8 8 
8 8 
8 8 
8 8 
8 8 
8 8 
8 8 
8 8 
8 8 
8 8 
8 8 
8 8 
8 8 
8 8 
8 8 
8 8 
8 8 
8 8 
8 8 
8 8 
8 8 
8 8 
8 8 
8 8 
8 8 
8 8 
8 8 
8 8 
8 8 
8 8 
8 8 
8 8 
8 8 
8 8 
8 8 
8 8 
8 8 
8 8 
8 8 
8 8 
8 8 
8 8 
8 8 
8 8 
8 8 
8 8 
8 8 
8 8 
8 8 
8 8 
8 8 
8 8 
8 8 
8 8 
8 8 
8 8 
8 8 
8 8 
8 8 
8 8 
8 8 
8 8 
8 8 
8 8 
8 8 
8 8 
8 8 
8 8 
8 8 
8 8 
8 8 
8 8 
8 8 
8 8 
8 8 
8 8 
8 8 
8 8 
8 8 
8 8 
8 8 
8 8 
8 8 
8 8 
8 8 
8 8 
8 8 
8 8 
8 8 
8 8 
8 8 
8 8 
8 8 
8 8 
8 8 
8 8 
8 8 
8 8 
8 8 
8 8 
8 8 
8 8 
8 8 
8 8 
8 8 
8 8 
8 8 
8 8 
8 8 
8 8 
8 8 
8 8 
8 8 
8 8 
8 8 
8 8 
8 8 
8 8 
8 8 
8 8 
8 8 
8 8 
8 8 
8 8 
8 8 
8 8 
8 8 
8 8 
8 8 
8 8 
8 8 
8 8 
8 8 
8 8 
8 8 
8 8 
8 8 
8 8 
8 8 
8 8 
8 8 
8 8 
8 8 
8 8 
8 8 
8 8 
8 8 
8 8 
8 8 
8 8 
8 8 
8 8 
8 8 
8 8 
8 8 
8 8 
8 8 
8 8 
8 8 
8 8 
8 8 
8 8 
8 8 
8 8 
8 8 
8 8 
8 8 
8 8 
8 8 
8 8 
8 8 
8 8 
8 8 
8 8 
8 8 
8 8 
8 8 
8 8 
8 8 
8 8 
8 8 
8 8 
8 8 
8 8 
8 8 
8 8 
8 8 
8 8 
8 8 
8 8 
8 8 
8 8 
8 8 
8 8 
8 8 
8 8 
8 8 
8 8 
8 8 
8 8 
8 8 
8 8 
8 8 
8 8 
8 8 
8 8 
8 8 
8 8 
8 8 
8 8 
8 8 
8 8 
8 8 
8 8 
8 8 
8 8 
8 8 
8 8 
8 8 
8 8 
8 8 
8 8 
8 8 
8 8 
8 8 
8 8 
8 8 
8 8 
8 8 
8 8 
8 8 
8 8 
8 8 
8 8 
8 8 
8 8 
8 8 
8 8 
8 8 
8 8 
8 8 
8 8 
8 8 
8 8 
8 8 
8 8 
8 8 
8 8 
8 8 
8 8 
8 8 
8 8 
8 8 
8 8 
8 8 
8 8 
8 8 
8 8 
8 8 
8 8 
8 8 
8 8 
8 8 
8 8 
8 8 
8 8 
8 8 
8 8 
8 8 
8 8 
8 8 
8 8 
8 8 
8 8 
8 8 
8 8 
8 8 
8 8 
8 8 
8 8 
8 8 
8 8 
8 8 
8 8 
8 8 
8 8 
8 8 
8 8 
8 8 
8 8 
8 8 
8 8 
8 8 
8 8 
8 8 
8 8 
8 8 
8 8 
8 8 
8 8 
8 8 
8 8 
8 8 
8 8 
8 8 
8 8 
8 8 
8 8 
8 8 
8 8 
8 8 
8 8 
8 8 
8 8 
8 8 
8 8 
8 8 
8 8 
8 8 
8 8 
8 8 
8 8 
8 8 
8 8 
8 8 
8 8 
8 8 
8 8 
8 8 
8 8 
8 8 
8 8 
8 8 
8 8 
8 8 
8 8 
8 8 
8 8 
8 8 
8 8 
8 8 
8 8 
8 8 
8 8 
8 8 
8 8 
8 8 
8 8 
8 8 
8 8 
8 8 
8 8 
8 8 
8 8 
8 8 
8 8 
8 8 
8 8 
8 8 
8 8 
8 8 
8 8 
8 8 
8 8 
8 8 
8 8 
8 8 
8 8 
8 8 
8 8 
8 8 
8 8 
8 8 
8 8 
8 8 
8 8 
8 8 
8 8 
8 8 
8 8 
8 8 
8 8 
8 8 
8 8 
8 8 
8 8 
8 8 
8 8 
8 8 
8 8 
8 8 
8 8 
8 8 
8 8 
8 8 
8 8 
8 8 
8 8 
8 8 
8 8 
8 8 
8 8 
8 8 
8 8 
8 8 
8 8 
8 8 
8 8 
8 8 
8 8 
8 8 
8 8 
8 8 
8 8 
8 8 
8 8 
8 8 
8 8 
8 8 
8 8 
8 8 
8 8 
8 8 
8 8 
8 8 
8 8 
8 8 
8 8 
8 8 
8 8 
8 8 
8 8 
8 8 
8 8 
8 8 
8 8 
8 8 
8 8 
8 8 
8 8 
8 8 
8 8 
8 8 
8 8 
8 8 
8 8 
8 8 
8 8 
8 8 
8 8 
8 8 
8 8 
8 8 
8 8 
8 8 
8 8 
8 8 
8 8 
8 8 
8 8 
8 8 
8 8 
8 8 
8 8 
8 8 
8 8 
8 8 
8 8 
8 8 
8 8 
8 8 
8 8 
8 8 
8 8 
8 8 
8 8 
8 8 
8 8 
8 8 
8 8 
8 8 
8 8 
8 8 
8 8 
8 8 
8 8 
8 8 
8 8 
8 8 
8 8 
8 8 
8 8 
8 8 
8 8 
8 8 
8 8 
8 8 
8 8 
8 8 
8 8 
8 8 
8 8 
8 8 
8 8 
8 8 
8 8 
8 8 
8 8 
8 8 
8 8 
8 8 
8 8 
8 8 
8 8 
8 8 
8 8 
8 8 
8 8 
8 8 
8 8 
8 8 
8 8 
8 8 
8 8 
8 8 
8 8 
8 8 
8 8 
8 8 
8 8 
8 8 
8 8 
8 8 
8 8 
8 8 
8 8 
8 8 
8 8 
8 8 
8 8 
8 8 
8 8 
8 8 
8 8 
8 8 
8 8 
8 8 
8 8 
8 8 
8 8 
8 8 
8 8 
8 8 
8 8 
8 8 
8 8 
8 8 
8 8 
8 8 
8 8 
8 8 
8 8 
8 8 
8 8 
8 8 
8 8 
8 8 
8 8 
8 8 
8 8 
8 8 
8 8 
8 8 
8 8 
8 8 
8 8 
8 8 
8 8 
8 8 
8 8 
8 8 
8 8 
8 8 
8 8 
8 8 
8 8 
8 8 
8 8 
8 8 
8 8 
8 8 
8 8 
8 8 
8 8 
8 8 
8 8 
8 8 
8 8 
8 8 
8 8 
8 8 
8 8 
8 8 
8 8 
8 8 
8 8 
8 8 
8 8 
8 8 
8 8 
8 8 
8 8 
8 8 
8 8 
8 8 
8 8 
8 8 
8 8 
8 8 
8 8 
8 8 
8 8 
8 8 
8 8 
8 8 
8 8 
8 8 
8 8 
8 8 
8 8 
8 8 
8 8 
8 8 
8 8 
8 8 
8 8 
8 8 
8 8 
8 8 
8 8 
8 8 
8 8 
8 8 
8 8 
8 8 
8 8 
8 8 
8 8 
8 8 
8 8 
8 8 
8 8 
8 8 
8 8 
8 8 
8 8 
8 8 
8 8 
8 8 
8 8 
8 8 
8 8 
8 8 
8 8 
8 8 
8 8 
8 8 
8 8 
8 8 
8 8 
8 8 
8 8 
8 8 
8 8 
8 8 
8 8 
8 8 
8 8 
8 8 
8 8 
8 8 
8 8 
8 8 
8 8 
8 8 
8 8 
8 8 
8 8 
8 8 
8 8 
8 8 
8 8 
8 8 
8 8 
8 8 
8 8 
8 8 
8 8 
8 8 
8 8 
8 8 
8 8 
8 8 
8 8 
8 8 
8 8 
8 8 
8 8 
8 8 
8 8 
8 8 
8 8 
8 8 
8 8 
8 8 
8 8 
8 8 
8 8 
8 8 
8 8 
8 8 
8 8 
8 8 
8 8 
8 8 
8 8 
8 8 
8 8 
8 8 
8 8 
8 8 
8 8 
8 8 
8 8 
8 8 
8 8 
8 8 
8 8 
8 8 
8 8 
8 8 
8 8 
8 8 
8 8 
8 8 
8 8 
8 8 
8 8 
8 8 
8 8 
8 8 
8 8 
8 8 
8 8 
8 8 
8 8 
8 8 
8 8 
8 8 
8 8 
8 8 
8 8 
8 8 
8 8 
8 8 
8 8 
8 8 
8 8 
8 8 
8 8 
8 8 
8 8 
8 8 
8 8 
8 8 
8 8 
8 8 
8 8 
8 8 
8 8 
8 8 
8 8 
8 8 
8 8 
8 8 
8 8 
8 8 
8 8 
8 8 
8 8 
8 8 
8 8 
8 8 
8 8 
8 8 
8 8 
8 8 
8 8 
8 8 
8 8 
8 8 
8 8 
8 8 
8 8 
8 8 
8 8 
8 8 
8 8 
8 8 
8 8 
8 8 
8 8 
8 8 
8 8 
8 8 
8 8 
8 8 
8 8 
8 8 
8 8 
8 8 
8 8 
8 8 
8 8 
8 8 
8 8 
8 8 
8 8 
8 8 
8 8 
8 8 
8 8 
8 8 
8 8 
8 8 
8 8 
8 8 
8 8 
8 8 
8 8 
8 8 
8 8 
8 8 
8 8 
8 8 
8 8 
8 8 
8 8 
8 8 
8 8 
8 8 
8 8 
8 8 
8 8 
8 8 
8 8 
8 8 
8 8 
8 8 
8 8 
8 8 
8 8 
8 8 
8 8 
8 8 
8 8 
8 8 
8 8 
8 8 
8 8 
8 8 
8 8 
8 8 
8 8 
8 8 
8 8 
8 8 
8 8 
8 8 
8 8 
8 8 
8 8 
8 8 
8 8 
8 8 
8 8 
8 8 
8 8 
8 8 
8 8 
8 8 
8 8 
8 8 
8 8 
8 8 
8 8 
8 8 
8 8 
8 8 
8 8 
8 8 
8 8 
8 8 
8 8 
8 8 
8 8 
8 8 
8 8 
8 8 
8 8 
8 8 
8 8 
8 8 
8 8 
8 8 
8 8 
8 8 
8 8 
8 8 
8 8 
8 8 
8 8 
8 8 
8 8 
8 8 
8 8 
8 8 
8 8 
8 8 
8 8 
8 8 
8 8 
8 8 
8 8 
8 8 
8 8 
8 8 
8 8 
8 8 
8 8 
8 8 
8 8 
8 8 
8 8 
8 8 
8 8 
8 8 
8 8 
8 8 
8 8 
8 8 
8 8 
8 8 
8 8 
8 8 
8 8 
8 8 
8 8 
8 8 
8 8 
8 8 
8 8 
8 8 
8 8 
8 8 
8 8 
8 8 
8 8 
8 8 
8 8 
8 8 
8 8 
8 8 
8 8 
8 8 
8 8 
8 8 
8 8 
8 8 
8 8 
8 8 
8 8 
8 8 
8 8 
8 8 
8 8 
8 8 
8 8 
8 8 
8 8 
8 8 
8 8 
8 8 
8 8 
8 8 
8 8 
8 8 
8 8 
8 8 
8 8 
8 8 
8 8 
8 8 
8 8 
8 8 
8 8 
8 8 
8 8 
8 8 
8 8 
8 8 
8 8 
8 8 
8 8 
8 8 
8 8 
8 8 
8 8 
8 8 
8 8 
8 8 
8 8 
8 8 
8 8 
8 8 
8 8 
8 8 
8 8 
8 8 
8 8 
8 8 
8 8 
8 8 
8 8 
8 8 
8 8 
8 8 
8 8 
8 8 
8 8 
8 8 
8 8 
8 8 
8 8 
8 8 
8 8 
8 8 
8 8 
8 8 
8 8 
8 8 
8 8 
8 8 
8 8 
8 8 
8 8 
8 8 
8 8 
8 8 
8 8 
8 8 
8 8 
8 8 
8 8 
8 8 
8 8 
8 8 
8 8 
8 8 
8 8 
8 8 
8 8 
8 8 
8 8 
8 8 
8 8 
8 8 
8 8 
8 8 
8 8 
8 8 
8 8 
8 8 
8 8 
8 8 
8 8 
8 8 
8 8 
8 8 
8 8 
8 8 
8 8 
8 8 
8 8 
8 8 
8 8 
8 8 
8 8 
8 8 
8 8 
8 8 
8 8 
8 8 
8 8 
8 8 
8 8 
8 8 
8 8 
8 8 
8 8 
8 8 
8 8 
8 8 
8 8 
8 8 
8 8 
8 8 
8 8 
8 8 
8 8 
8 8 
8 8 
8 8 
8 8 
8 8 
8 8 
8 8 
8 8 
8 8 
8 8 
8 8 
8 8 
8 8 
8 8 
8 8 
8 8 
8 8 
8 8 
8 8 
8 8 
8 8 
8 8 
8 8 
8 8 
8 8 
8 8 
8 8 
8 8 
8 8 
8 8 
8 8 
8 8 
8 8 
8 8 
8 8 
8 8 
8 8 
8 8 
8 8 
8 8 
8 8 
8 8 
8 8 
8 8 
8 8 
8 8 
8 8 
8 8 
8 8 
8 8 
8 8 
8 8 
8 8 
8 8 
8 8 
8 8 
8 8 
8 8 
8 8 
8 8 
8 8 
8 8 
8 8 
8 8 
8 8 
8 8 
8 8 
8 8 
8 8 
8 8 
8 8 
8 8 
8 8 
8 8 
8 8 
8 8 
8 8 
8 8 
8 8 
8 8 
8 8 
8 8 
8 8 
8 8 
8 8 
8 8 
8 8 
8 8 
8 8 
8 8 
8 8 
8 8 
8 8 
8 8 
8 8 
8 8 
8 8 
8 8 
8 8 
8 8 
8 8 
8 8 
8 8 
8 8 
8 8 
8 8 
8 8 
8 8 
8 8 
8 8 
8 8 
8 8 
8 8 
8 8 
8 8 
8 8 
8 8 
8 8 
8 8 
8 8 
8 8 
8 8 
8 8 
8 8 
8 8 
8 8 
8 8 
8 8 
8 8 
8 8 
8 8 
8 8 
8 8 
8 8 
8 8 
8 8 
8 8 
8 8 
8 8 
8 8 
8 8 
8 8 
8 8 
8 8 
8 8 
8 8 
8 8 
8 8 
8 8 
8 8 
8 8 
8 8 
8 8 
8 8 
8 8 
8 8 
8 8 
8 8 
8 8 
8 8 
8 8 
8 8 
8 8 
8 8 
8 8 
8 8 
8 8 
8 8 
8 8 
8 8 
8 8 
8 8 
8 8 
8 8 
8 8 
8 8 
8 8 
8 8 
8 8 
8 8 
8 8 
8 8 
8 8 
8 8 
8 8 
8 8 
8 8 
8 8 
8 8 
8 8 
8 8 
8 8 
8 8 
8 8 
8 8 
8 8 
8 8 
8 8 
8 8 
8 8 
8 8 
8 8 
8 8 
8 8 
8 8 
8 8 
8 8 
8 8 
8 8 
8 8 
8 8 
8 8 
8 8 
8 8 
8 8 
8 8 
8 8 
8 8 
8 8 
8 8 
8 8 
8 8 
8 8 
8 8 
8 8 
8 8 
8 8 
8 8 
8 8 
8 8 
8 8 
8 8 
8 8 
8 8 
8 8 
8 8 
8 8 
8 8 
8 8 
8 8 
8 8 
8 8 
8 8 
8 8 
8 8 
8 8 
8 8 
8 8 
8 8 
8 8 
8 8 
8 8 
8 8 
8 8 
8 8 
8 8 
8 8 
8 8 
8 8 
8 8 
8 8 
8 8 
8 8 
8 8 
8 8 
8 8 
8 8 
8 8 
8 8 
8 8 
8 8 
8 8 
8 8 
8 8 
8 8 
8 8 
8 8 
8 8 
8 8 
8 8 
8 8 
8 8 
8 8 
8 8 
8 8 
8 8 
8 8 
8 8 
8 8 
8 8 
8 8 
8 8 
8 8 
8 8 
8 8 
8 8 
8 8 
8 8 
8 8 
8 8 
8 8 
8 8 
8 8 
8 8 
8 8 
8 8 
8 8 
8 8 
8 8 
8 8 
8 8 
8 8 
8 8 
8 8 
8 8 
8 8 
8 8 
8 8 
8 8 
8 8 
8 8 
8 8 
8 8 
8 8 
8 8 
8 8 
8 8 
8 8 
8 8 
8 8 
8 8 
8 8 
8 8 
8 8 
8 8 
8 8 
8 8 
8 8 
8 8 
8 8 
8 8 
8 8 
8 8 
8 8 
8 8 
8 8 
8 8 
8 8 
8 8 
8 8 
8 8 
8 8 
8 8 
8 8 
8 8 
8 8 
8 8 
8 8 
8 8 
8 8 
8 8 
8 8 
8 8 
8 8 
8 8 
8 8 
8 8 
8 8 
8 8 
8 8 
8 8 
8 8 
8 8 
8 8 
8 8 
8 8 
8 8 
8 8 
8 8 
8 8 
8 8 
8 8 
8 8 
8 8 
8 8 
8 8 
8 8 
8 8 
8 8 
8 8 
8 8 
8 8 
8 8 
8 8 
8 8 
8 8 
8 8 
8 8 
8 8 
8 8 
8 8 
8 8 
8 8 
8 8 
8 8 
8 8 
8 8 
8 8 
8 8 
8 8 
8 8 
8 8 
8 8 
8 8 
8 8 
8 8 
8 8 
8 8 
8 8 
8 8 
8 8 
8 8 
8 8 
8 8 
8 8 
8 8 
8 8 
8 8 
8 8 
8 8 
8 8 
8 8 
8 8 
8 8 
8 8 
8 8 
8 8 
8 8 
8 8 
8 8 
8 8 
8 8 
8 8 
8 8 
8 8 
8 8 
8 8 
8 8 
8 8 
8 8 
8 8 
8 8 
8 8 
8 8 
8 8 
8 8 
8 8 
8 8 
8 8 
8 8 
8 8 
8 8 
8 8 
8 8 
8 8 
8 8 
8 8 
8 8 
8 8 
8 8 
8 8 
8 8 
8 8 
8 8 
8 8 
8 8 
8 8 
8 8 
8 8 
8 8 
8 8 
8 8 
8 8 
8 8 
8 8 
8 8 
8 8 
8 8 
8 8 
8 8 
8 8 
8 8 
8 8 
8 8 
8 8 
8 8 
8 8 
8 8 
8 8 
8 8 
8 8 
8 8 
8 8 
8 8 
8 8 
8 8 
8 8 
8 8 
8 8 
8 8 
8 8 
8 8 
8 8 
8 8 
8 8 
8 8 
8 8 
8 8 
8 8 
8 8 
8 8 
8 8 
8 8 
8 8 
8 8 
8 8 
8 8 
8 8 
8 8 
8 8 
8 8 
8 8 
8 8 
8 8 
8 8 
8 8 
8 8 
8 8 
8 8 
8 8 
8 8 
8 8 
8 8 
8 8 
8 8 
8 8 
8 8 
8 8 
8 8 
8 8 
8 8 
8 8 
8 8 
8 8 
8 8 
8 8 
8 8 
8 8 
8 8 
8 8 
8 8 
8 8 
8 8 
8 8 
8 8 
8 8 
8 8 
8 8 
8 8 
8 8 
8 8 
8 8 
8 8 
8 8 
8 8 
8 8 
8 8 
8 8 
8 8 
8 8 
8 8 
8 8 
8 8 
8 8 
8 8 
8 8 
8 8 
8 8 
8 8 
8 8 
8 8 
8 8 
8 8 
8 8 
8 8 
8 8 
8 8 
8 8 
8 8 
8 8 
8 8 
8 8 
8 8 
8 8 
8 8 
8 8 
8 8 
8 8 
8 8 
8 8 
8 8 
8 8 
8 8 
8 8 
8 8 
8 8 
8 8 
8 8 
8 8 
8 8 
8 8 
8 8 
8 8 
8 8 
8 8 
8 8 
8 8 
8 8 
8 8 
8 8 
8 8 
8 8 
8 8 
8 8 
8 8 
8 8 
8 8 
8 8 
8 8 
8 8 
8 8 
8 8 
8 8 
8 8 
8 8 
8 8 
8 8 
8 8 
8 8 
8 8 
8 8 
8 8 
8 8 
8 8 
8 8 
8 8 
8 8 
8 8 
8 8 
8 8 
8 8 
8 8 
8 8 
8 8 
8 8 
8 8 
8 8 
8 8 
8 8 
8 8 
8 8 
8 8 
8 8 
8 8 
8 8 
8 8 
8 8 
8 8 
8 8 
8 8 
8 8 
8 8 
8 8 
8 8 
8 8 
8 8 
8 8 
8 8 
8 8 
8 8 
8 8 
8 8 
8 8 
8 8 
8 8 
8 8 
8 8 
8 8 
8 8 
8 8 
8 8 
8 8 
8 8 
8 8 
8 8 
8 8 
8 8 
8 8 
8 8 
8 8 
8 8 
8 8 
8 8 
8 8 
8 8 
8 8 
8 8 
8 8 
8 8 
8 8 
8 8 
8 8 
8 8 
8 8 
8 8 
8 8 
8 8 
8 8 
8 8 
8 8 
8 8 
8 8 
8 8 
8 8 
8 8 
8 8 
8 8 
8 8 
8 8 
8 8 
8 8 
8 8 
8 8 
8 8 
8 8 
8 8 
8 8 
8 8 
8 8 
8 8 
8 8 
8 8 
8 8 
8 8 
8 8 
8 8 
8 8 
8 8 
8 8 
8 8 
8 8 
8 8 
8 8 
8 8 
8 8 
8 8 
8 8 
8 8 
8 8 
8 8 
8 8 
8 8 
8 8 
8 8 
8 8 
8 8 
8 8 
8 8 
8 8 
8 8 
8 8 
8 8 
8 8 
8 8 
8 8 
8 8 
8 8 
8 8 
8 8 
8 8 
8 8 
8 8 
8 8 
8 8 
8 8 
8 8 
8 8 
8 8 
8 8 
8 8 
8 8 
8 8 
8 8 
8 8 
8 8 
8 8 
8 8 
8 8 
8 8 
8 8 
8 8 
8 8 
8 8 
8 8 
8 8 
8 8 
8 8 
8 8 
8 8 
8 8 
8 8 
8 8 
8 8 
8 8 
8 8 
8 8 
8 8 
8 8 
8 8 
8 8 
8 8 
8 8 
8 8 
8 8 
8 8 
8 8 
8 8 
8 8 
8 8 
8 8 
8 8 
8 8 
8 8 
8 8 
8 8 
8 8 
8 8 
8 8 
8 8 
8 8 
8 8 
8 8 
8 8 
8 8 
8 8 
8 8 
8 8 
8 8 
8 8 
8 8 
8 8 
8 8 
8 8 
8 8 
8 8 
8 8 
8 8 
8 8 
8 8 
8 8 
8 8 
8 8 
8 8 
8 8 
8 8 
8 8 
8 8 
8 8 
8 8 
8 8 
8 8 
8 8 
8 8 
8 8 
8 8 
8 8 
8 8 
8 8 
8 8 
8 8 
8 8 
8 8 
8 8 
8 8 
8 8 
8 8 
8 8 
8 8 
8 8 
8 8 
8 8 
8 8 
8 8 
8 8 
8 8 
8 8 
8 8 
8 8 
8 8 
8 8 
8 8 
8 8 
8 8 
8 8 
8 8 
8 8 
8 8 
8 8 
8 8 
8 8 
8 8 
8 8 
8 8 
8 8 
8 8 
8 8 
8 8 
8 8 
8 8 
8 8 
8 8 
8 8 
8 8 
8 8 
8 8 
8 8 
8 8 
8 8 
8 8 
8 8 
8 8 
8 8 
8 8 
8 8 
8 8 
8 8 
8 8 
8 8 
8 8 
8 8 
8 8 
8 8 
8 8 
8 8 
8 8 
8 8 
8 8 
8 8 
8 8 
8 8 
8 8 
8 8 
8 8 
8 8 
8 8 
8 8 
8 8 
8 8 
8 8 
8 8 
8 8 
8 8 
8 8 
8 8 
8 8 
8 8 
8 8 
8 8 
8 8 
8 8 
8 8 
8 8 
8 8 
8 8 
8 8 
8 8 
8 8 
8 8 
8 8 
8 8 
8 8 
8 8 
8 8 
8 8 
8 8 
8 8 
8 8 
8 8 
8 8 
8 8 
8 8 
8 8 
8 8 
8 8 
8 8 
8 8 
8 8 
8 8 
8 8 
8 8 
8 8 
8 8 
8 8 
8 8 
8 8 
8 8 
8 8 
8 8 
8 8 
8 8 
8 8 
8 8 
8 8 
8 8 
8 8 
8 8 
8 8 
8 8 
8 8 
8 8 
8 8 
8 8 
8 8 
8 8 
8 8 
8 8 
8 8 
8 8 
8 8 
8 8 
8 8 
8 8 
8 8 
8 8 
8 8 
8 8 
8 8 
8 8 
8 8 
8 8 
8 8 
8 8 
8 8 
8 8 
8 8 
8 8 
8 8 
8 8 
8 8 
8 8 
8 8 
8 8 
8 8 
8 8 
8 8 
8 8 
8 8 
8 8 
8 8 
8 8 
8 8 
8 8 
8 8 
8 8 
8 8 
8 8 
8 8 
8 8 
8 8 
8 8 
8 8 
8 8 
8 8 
8 8 
8 8 
8 8 
8 8 
8 8 
8 8 
8 8 
8 8 
8 8 
8 8 
8 8 
8 8 
8 8 
8 8 
8 8 
8 8 
8 8 
8 8 
8 8 
8 8 
8 8 
8 8 
8 8 
8 8 
8 8 
8 8 
8 8 
8 8 
8 8 
8 8 
8 8 
8 8 
8 8 
8 8 
8 8 
8 8 
8 8 
8 8 
8 8 
8 8 
8 8 
8 8 
8 8 
8 8 
8 8 
8 8 
8 8 
8 8 
8 8 
8 8 
8 8 
8 8 
8 8 
8 8 
8 8 
8 8 
8 8 
8 8 
8 8 
8 8 
8 8 
8 8 
8 8 
8 8 
8 8 
8 8 
8 8 
8 8 
8 8 
8 8 
8 8 
8 8 
8 8 
8 8 
8 8 
8 8 
8 8 
8 8 
8 8 
8 8 
8 8 
8 8 
8 8 
8 8 
8 8 
8 8 
8 8 
8 8 
8 8 
8 8 
8 8 
8 8 
8 8 
8 8 
8 8 
8 8 
8 8 
8 8 
8 8 
8 8 
8 8 
8 8 
8 8 
8 8 
8 8 
8 8 
8 8 
8 8 
8 8 
8 8 
8 8 
8 8 
8 8 
8 8 
8 8 
8 8 
8 8 
8 8 
8 8 
8 8 
8 8 
8 8 
8 8 
8 8 
8 8 
8 8 
8 8 
8 8 
8 8 
8 8 
8 8 
8 8 
8 8 
8 8 
8 8 
8 8 
8 8 
8 8 
8 8 
8 8 
8 8 
8 8 
8 8 
8 8 
8 8 
8 8 
8 8 
8 8 
8 8 
8 8 
8 8 
8 8 
8 8 
8 8 
8 8 
8 8 
8 8 
8 8 
8 8 
8 8 
8 8 
8 8 
8 8 
8 8 
8 8 
8 8 
8 8 
8 8 
8 8 
8 8 
8 8 
8 8 
8 8 
8 8 
8 8 
8 8 
8 8 
8 8 
8 8 
8 8 
8 8 
8 8 
8 8 
8 8 
8 8 
8 8 
8 8 
8 8 
8 8 
8 8 
8 8 
8 8 
8 8 
8 8 
8 8 
8 8 
8 8 
8 8 
8 8 
8 8 
8 8 
8 8 
8 8 
8 8 
8 8 
8 8 
8 8 
8 8 
8 8 
8 8 
8 8 
8 8 
8 8 
8 8 
8 8 
8 8 
8 8 
8 8 
8 8 
8 8 
8 8 
8 8 
8 8 
8 8 
8 8 
8 8 
8 8 
8 8 
8 8 
8 8 
8 8 
8 8 
8 8 
8 8 
8 8 
8 8 
8 8 
8 8 
8 8 
8 8 
8 8 
8 8 
8 8 
8 8 
8 8 
8 8 
8 8 
8 8 
8 8 
8 8 
8 8 
8 8 
8 8 
8 8 
8 8 
8 8 
8 8 
8 8 
8 8 
8 8 
8 8 
8 8 
8 8 
8 8 
8 8 
8 8 
8 8 
8 8 
8 8 
8 8 
8 8 
8 8 
8 8 
8 8 
8 8 
8 8 
8 8 
8 8 
8 8 
8 8 
8 8 
8 8 
8 8 
8 8 
8 8 
8 8 
8 8 
8 8 
8 8 
8 8 
8 8 
8 8 
8 8 
8 8 
8 8 
8 8 
8 8 
8 8 
8 8 
8 8 
8 8 
8 8 
8 8 
8 8 
8 8 
8 8 
8 8 
8 8 
8 8 
8 8 
8 8 
8 8 
8 8 
8 8 
8 8 
8 8 
8 8 
8 8 
8 8 
8 8 
8 8 
8 8 
8 8 
8 8 
8 8 
8 8 
8 8 
8 8 
8 8 
8 8 
8 8 
8 8 
8 8 
8 8 
8 8 
8 8 
8 8 
8 8 
8 8 
8 8 
8 8 
8 8 
8 8 
8 8 
8 8 
8 8 
8 8 
8 8 
8 8 
8 8 
8 8 
8 8 
8 8 
8 8 
8 8 
8 8 
8 8 
8 8 
8 8 
8 8 
8 8 
8 8 
8 8 
8 8 
8 8 
8 8 
8 8 
8 8 
8 8 
8 8 
8 8 
8 8 
8 8 
8 8 
8 8 
8 8 
8 8 
8 8 
8 8 
8 8 
8 8 
8 8 
8 8 
8 8 
8 8 
8 8 
8 8 
8 8 
8 8 
8 8 
8 8 
8 8 
8 8 
8 8 
8 8 
8 8 
8 8 
8 8 
8 8 
8 8 
8 8 
8 8 
8 8 
8 8 
8 8 
8 8 
8 8 
8 8 
8 8 
8 8 
8 8 
8 8 
8 8 
8 8 
8 8 
8 8 
8 8 
8 8 
8 8 
8 8 
8 8 
8 8 
8 8 
8 8 
8 8 
8 8 
8 8 
8 8 
8 8 
8 8 
8 8 
8 8 
8 8 
8 8 
8 8 
8 8 
8 8 
8 8 
8 8 
8 8 
8 8 
8 8 
8 8 
8 8 
8 8 
8 8 
8 8 
8 8 
8 8 
8 8 
8 8 
8 8 
8 8 
8 8 
8 8 
8 8 
8 8 
8 8 
8 8 
8 8 
8 8 
8 8 
8 8 
8 8 
8 8 
8 8 
8 8 
8 8 
8 8 
8 8 
8 8 
8 8 
8 8 
8 8 
8 8 
8 8 
8 8 
8 8 
8 8 
8 8 
8 8 
8 8 
8 8 
8 8 
8 8 
8 8 
8 8 
8 8 
8 8 
8 8 
8 8 
8 8 
8 8 
8 8 
8 8 
8 8 
8 8 
8 8 
8 8 
8 8 
8 8 
8 8 
8 8 
8 8 
8 8 
8 8 
8 8 
8 8 
8 8 
8 8 
8 8 
8 8 
8 8 
8 8 
8 8 
8 8 
8 8 
8 8 
8 8 
8 8 
8 8 
8 8 
8 8 
8 8 
8 8 
8 8 
8 8 
8 8 
8 8 
8 8 
8 8 
8 8 
8 8 
8 8 
8 8 
8 8 
8 8 
8 8 
8 8 
8 8 
8 8 
8 8 
8 8 
8 8 
8 8 
8 8 
8 8 
8 8 
8 8 
8 8 
8 8 
8 8 
8 8 
8 8 
8 8 
8 8 
8 8 
8 8 
8 8 
8 8 
8 8 
8 8 
8 8 
8 8 
8 8 
8 8 
8 8 
8 8 
8 8 
8 8 
8 8 
8 8 
8 8 
8 8 
8 8 
8 8 
8 8 
8 8 
8 8 
8 8 
8 8 
8 8 
8 8 
8 8 
8 8 
8 8 
8 8 
8 8 
8 8 
8 8 
8 8 
8 8 
8 8 
8 8 
8 8 
8 8 
8 8 
8 8 
8 8 
8 8 
8 8 
8 8 
8 8 
8 8 
8 8 
8 8 
8 8 
8 8 
8 8 
8 8 
8 8 
8 8 
8 8 
8 8 
8 8 
8 8 
8 8 
8 8 
8 8 
8 8 
8 8 
8 8 
8 8 
8 8 
8 8 
8 8 
8 8 
8 8 
8 8 
8 8 
8 8 
8 8 
8 8 
8 8 
8 8 
8 8 
8 8 
8 8 
8 8 
8 8 
8 8 
8 8 
8 8 
8 8 
8 8 
8 8 
8 8 
8 8 
8 8 
8 8 
8 8 
8 8 
8 8 
8 8 
8 8 
8 8 
8 8 
8 8 
8 8 
8 8 
8 8 
8 8 
8 8 
8 8 
8 8 
8 8 
8 8 
8 8 
8 8 
8 8 
8 8 
8 8 
8 8 
8 8 
8 8 
8 8 
8 8 
8 8 
8 8 
8 8 
8 8 
8 8 
8 8 
8 8 
8 8 
8 8 
8 8 
8 8 
8 8 
8 8 
8 8 
8 8 
8 8 
8 8 
8 8 
8 8 
8 8 
8 8 
8 8 
8 8 
8 8 
8 8 
8 8 
8 8 
8 8 
8 8 
8 8 
8 8 
8 8 
8 8 
8 8 
8 8 
8 8 
8 8 
8 8 
8 8 
8 8 
8 8 
8 8 
8 8 
8 8 
8 8 
8 8 
8 8 
8 8 
8 8 
8 8 
8 8 
8 8 
8 8 
8 8 
8 8 
8 8 
8 8 
8 8 
8 8 
8 8 
8 8 
8 8 
8 8 
8 8 
8 8 
8 8 
8 8 
8 8 
8 8 
8 8 
8 8 
8 8 
8 8 
8 8 
8 8 
8 8 
8 8 
8 8 
8 8 
8 8 
8 8 
8 8 
8 8 
8 8 
8 8 
8 8 
8 8 
8 8 
8 8 
8 8 
8 8 
8 8 
8 8 
8 8 
8 8 
8 8 
8 8 
8 8 
8 8 
8 8 
8 8 
8 8 
8 8 
8 8 
8 8 
8 8 
8 8 
8 8 
8 8 
8 8 
8 8 
8 8 
8 8 
8 8 
8 8 
8 8 
8 8 
8 8 
8 8 
8 8 
8 8 
8 8 
8 8 
8 8 
8 8 
8 8 
8 8 
8 8 
8 8 
8 8 
8 8 
8 8 
8 8 
8 8 
8 8 
8 8 
8 8 
8 8 
8 8 
8 8 
8 8 
8 8 
8 8 
8 8 
8 8 
8 8 
8 8 
8 8 
8 8 
8 8 
8 8 
8 8 
8 8 
8 8 
8 8 
8 8 
8 8 
8 8 
8 8 
8 8 
8 8 
8 8 
8 8 
8 8 
8 8 
8 8 
8 8 
8 8 
8 8 
8 8 
8 8 
8 8 
8 8 
8 8 
8 8 
8 8 
8 8 
8 8 
8 8 
8 8 
8 8 
8 8 
8 8 
8 8 
8 8 
8 8 
8 8 
8 8 
8 8 
8 8 
8 8 
8 8 
8 8 
8 8 
8 8 
8 8 
8 8 
8 8 
8 8 
8 8 
8 8 
8 8 
8 8 
8 8 
8 8 
8 8 
8 8 
8 8 
8 8 
8 8 
8 8 
8 8 
8 8 
8 8 
8 8 
8 8 
8 8 
8 8 
8 8 
8 8 
8 8 
8 8 
8 8 
8 8 
8 8 
8 8 
8 8 
8 8 
8 8 
8 8 
8 8 
8 8 
8 8 
8 8 
8 8 
8 8 
8 8 
8 8 
8 8 
8 8 
8 8 
8 8 
8 8 
8 8 
8 8 
8 8 
8 8 
8 8 
8 8 
8 8 
8 8 
8 8 
8 8 
8 8 
8 8 
8 8 
8 8 
8 8 
8 8 
8 8 
8 8 
8 8 
8 8 
8 8 
8 8 
8 8 
8 8 
8 8 
8 8 
8 8 
8 8 
8 8 
8 8 
8 8 
8 8 
8 8 
8 8 
8 8 
8 8 
8 8 
8 8 
8 8 
8 8 
8 8 
8 8 
8 8 
8 8 
8 8 
8 8 
8 8 
8 8 
8 8 
8 8 
8 8 
8 8 
8 8 
8 8 
8 8 
8 8 
8 8 
8 8 
8 8 
8 8 
8 8 
8 8 
8 8 
8 8 
8 8 
8 8 
8 8 
8 8 
8 8 
8 8 
8 8 
8 8 
8 8 
8 8 
8 8 
8 8 
8 8 
8 8 
8 8 
8 8 
8 8 
8 8 
8 8 
8 8 
8 8 
8 8 
8 8 
8 8 
8 8 
8 8 
8 8 
8 8 
8 8 
8 8 
8 8 
8 8 
8 8 
8 8 
8 8 
8 8 
8 8 
8 8 
8 8 
8 8 
8 8 
8 8 
8 8 
8 8 
8 8 
8 8 
8 8 
8 8 
8 8 
8 8 
8 8 
8 8 
8 8 
8 8 
8 8 
8 8 
8 8 
8 8 
8 8 
8 8 
8 8 
8 8 
8 8 
8 8 
8 8 
8 8 
8 8 
8 8 
8 8 
8 8 
8 8 
8 8 
8 8 
8 8 
8 8 
8 8 
8 8 
8 8 
8 8 
8 8 
8 8 
8 8 
8 8 
8 8 
8 8 
8 8 
8 8 
8 8 
8 8 
8 8 
8 8 
8 8 
8 8 
8 8 
8 8 
8 8 
8 8 
8 8 
8 8 
8 8 
8 8 
8 8 
8 8 
8 8 
8 8 
8 8 
8 8 
8 8 
8 8 
8 8 
8 8 
8 8 
8 8 
8 8 
8 8 
8 8 
8 8 
8 8 
8 8 
8 8 
8 8 
8 8 
8 8 
8 8 
8 8 
8 8 
8 8 
8 8 
8 8 
8 8 
8 8 
8 8 
8 8 
8 8 
8 8 
8 8 
8 8 
8 8 
8 8 
8 8 
8 8 
8 8 
8 8 
8 8 
8 8 
8 8 
8 8 
8 8 
8 8 
8 8 
8 8 
8 8 
8 8 
8 8 
8 8 
8 8 
8 8 
8 8 
8 8 
8 8 
8 8 
8 8 
8 8 
8 8 
8 8 
8 8 
8 8 
8 8 
8 8 
8 8 
8 8 
8 8 
8 8 
8 8 
8 8 
8 8 
8 8 
8 8 
8 8 
8 8 
8 8 
8 8 
8 8 
8 8 
8 8 
8 8 
8 8 
8 8 
8 8 
8 8 
8 8 
8 8 
8 8 
8 8 
8 8 
8 8 
8 8 
8 8 
8 8 
8 8 
8 8 
8 8 
8 8 
8 8 
8 8 
8 8 
8 8 
8 8 
8 8 
8 8 
8 8 
8 8 
8 8 
8 8 
8 8 
8 8 
8 8 
8 8 
8 8 
8 8 
8 8 
8 8 
8 8 
8 8 
8 8 
8 8 
8 8 
8 8 
8 8 
8 8 
8 8 
8 8 
8 8 
8 8 
8 8 
8 8 
8 8 
8 8 
8 8 
8 8 
8 8 
8 8 
8 8 
8 8 
8 8 
8 8 
8 8 
8 8 
8 8 
8 8 
8 8 
8 8 
8 8 
8 8 
8 8 
8 8 
8 8 
8 8 
8 8 
8 8 
8 8 
8 8 
8 8 
8 8 
8 8 
8 8 
8 8 
8 8 
8 8 
8 8 
8 8 
8 8 
8 8 
8 8 
8 8 
8 8 
8 8 
8 8 
8 8 
8 8 
8 8 
8 8 
8 8 
8 8 
8 8 
8 8 
8 8 
8 8 
8 8 
8 8 
8 8 
8 8 
8 8 
8 8 
8 8 
8 8 
8 8 
8 8 
8 8 
8 8 
8 8 
8 8 
8 8 
8 8 
8 8 
8 8 
8 8 
8 8 
8 8 
8 8 
8 8 
8 8 
8 8 
8 8 
8 8 
8 8 
8 8 
8 8 
8 8 
8 8 
8 8 
8 8 
8 8 
8 8 
8 8 
8 8 
8 8 
8 8 
8 8 
8 8 
8 8 
8 8 
8 8 
8 8 
8 8 
8 8 
8 8 
8 8 
8 8 
8 8 
8 8 
8 8 
8 8 
8 8 
8 8 
8 8 
8 8 
8 8 
8 8 
8 8 
8 8 
8 8 
8 8 
8 8 
8 8 
8 8 
8 8 
8 8 
8 8 
8 8 
8 8 
8 8 
8 8 
8 8 
8 8 
8 8 
8 8 
8 8 
8 8 
8 8 
8 8 
8 8 
8 8 
8 8 
8 8 
8 8 
8 8 
8 8 
8 8 
8 8 
8 8 
8 8 
8 8 
8 8 
8 8 
8 8 
8 8 
8 8 
8 8 
8 8 
8 8 
8 8 
8 8 
8 8 
8 8 
8 8 
8 8 
8 8 
8 8 
8 8 
8 8 
8 8 
8 8 
8 8 
8 8 
8 8 
8 8 
8 8 
8 8 
8 8 
8 8 
8 8 
8 8 
8 8 
8 8 
8 8 
8 8 
8 8 
8 8 
8 8 
8 8 
8 8 
8 8 
8 8 
8 8 
8 8 
8 8 
8 8 
8 8 
8 8 
8 8 
8 8 
8 8 
8 8 
8 8 
8 8 
8 8 
8 8 
8 8 
8 8 
8 8 
8 8 
8 8 
8 8 
8 8 
8 8 
8 8 
8 8 
8 8 
8 8 
8 8 
8 8 
8 8 
8 8 
8 8 
8 8 
8 8 
8 8 
8 8 
8 8 
8 8 
8 8 
8 8 
8 8 
8 8 
8 8 
8 8 
8 8 
8 8 
8 8 
8 8 
8 8 
8 8 
8 8 
8 8 
8 8 
8 8 
8 8 
8 8 
8 8 
8 8 
8 8 
8 8 
8 8 
8 8 
8 8 
8 8 
8 8 
8 8 
8 8 
8 8 
8 8 
8 8 
8 8 
8 8 
8 8 
8 8 
8 8 
8 8 
8 8 
8 8 
8 8 
8 8 
8 8 
8 8 
8 8 
8 8 
8 8 
8 8 
8 8 
8 8 
8 8 
8 8 
8 8 
8 8 
8 8 
8 8 
8 8 
8 8 
8 8 
8 8 
8 8 
8 8 
8 8 
8 8 
8 8 
8 8 
8 8 
8 8 
8 8 
8 8 
8 8 
8 8 
8 8 
8 8 
8 8 
8 8 
8 8 
8 8 
8 8 
8 8 
8 8 
8 8 
8 8 
8 8 
8 8 
8 8 
8 8 
8 8 
8 8 
8 8 
8 8 
8 8 
8 8 
8 8 
8 8 
8 8 
8 8 
8 8 
8 8 
8 8 
8 8 
8 8 
8 8 
8 8 
8 8 
8 8 
8 8 
8 8 
8 8 
8 8 
8 8 
8 8 
8 8 
8 8 
8 8 
8 8 
8 8 
8 8 
8 8 
8 8 
8 8 
8 8 
8 8 
8 8 
8 8 
8 8 
8 8 
8 8 
8 8 
8 8 
8 8 
8 8 
8 8 
8 8 
8 8 
8 8 
8 8 
8 8 
8 8 
8 8 
8 8 
8 8 
8 8 
8 8 
8 8 
8 8 
8 8 
8 8 
8 8 
8 8 
8 8 
8 8 
8 8 
8 8 
8 8 
8 8 
8 8 
8 8 
8 8 
8 8 
8 8 
8 8 
8 8 
8 8 
8 8 
8 8 
8 8 
8 8 
8 8 
8 8 
8 8 
8 8 
8 8 
8 8 
8 8 
8 8 
8 8 
8 8 
8 8 
8 8 
8 8 
8 8 
8 8 
8 8 
8 8 
8 8 
8 8 
8 8 
8 8 
8 8 
8 8 
8 8 
8 8 
8 8 
8 8 
8 8 
8 8 
8 8 
8 8 
8 8 
8 8 
8 8 
8 8 
8 8 
8 8 
8 8 
8 8 
8 8 
8 8 
8 8 
8 8 
8 8 
8 8 
8 8 
8 8 
8 8 
8 8 
8 8 
8 8 
8 8 
8 8 
8 8 
8 8 
8 8 
8 8 
8 8 
8 8 
8 8 
8 8 
8 8 
8 8 
8 8 
8 8 
8 8 
8 8 
8 8 
8 8 
8 8 
8 8 
8 8 
8 8 
8 8 
8 8 
8 8 
8 8 
8 8 
8 8 
8 8 
8 8 
8 8 
8 8 
8 8 
8 8 
8 8 
8 8 
8 8 
8 8 
8 8 
8 8 
8 8 
8 8 
8 8 
8 8 
8 8 
8 8 
8 8 
8 8 
8 8 
8 8 
8 8 
8 8 
8 8 
8 8 
8 8 
8 8 
8 8 
8 8 
8 8 
8 8 
8 8 
8 8 
8 8 
8 8 
8 8 
8 8 
8 8 
8 8 
8 8 
8 8 
8 8 
8 8 
8 8 
8 8 
8 8 
8 8 
8 8 
8 8 
8 8 
8 8 
8 8 
8 8 
8 8 
8 8 
8 8 
8 8 
8 8 
8 8 
8 8 
8 8 
8 8 
8 8 
8 8 
8 8 
8 8 
8 8 
8 8 
8 8 
8 8 
8 8 
8 8 
8 8 
8 8 
8 8 
8 8 
8 8 
8 8 
8 8 
8 8 
8 8 
8 8 
8 8 
8 8 
8 8 
8 8 
8 8 
8 8 
8 8 
8 8 
8 8 
8 8 
8 8 
8 8 
8 8 
8 8 
8 8 
8 8 
8 8 
8 8 
8 8 
8 8 
8 8 
8 8 
8 8 
8 8 
8 8 
8 8 
8 8 
8 8 
8 8 
8 8 
8 8 
8 8 
8 8 
8 8 
8 8 
8 8 
8 8 
8 8 
8 8 
8 8 
8 8 
8 8 
8 8 
8 8 
8 8 
8 8 
8 8 
8 8 
8 8 
8 8 
8 8 
8 8 
8 8 
8 8 
8 8 
8 8 
8 8 
8 8 
8 8 
8 8 
8 8 
8 8 
8 8 
8 8 
8 8 
8 8 
8 8 
8 8 
8 8 
8 8 
8 8 
8 8 
8 8 
8 8 
8 8 
8 8 
8 8 
8 8 
8 8 
8 8 
8 8 
8 8 
8 8 
8 8 
8 8 
8 8 
8 8 
8 8 
8 8 
8 8 
8 8 
8 8 
8 8 
8 8 
8 8 
8 8 
8 8 
8 8 
8 8 
8 8 
8 8 
8 8 
8 8 
8 8 
8 8 
8 8 
8 8 
8 8 
8 8 
8 8 
8 8 
8 8 
8 8 
8 8 
8 8 
8 8 
8 8 
8 8 
8 8 
8 8 
8 8 
8 8 
8 8 
8 8 
8 8 
8 8 
8 8 
8 8 
8 8 
8 8 
8 8 
8 8 
8 8 
8 8 
8 8 
8 8 
8 8 
8 8 
8 8 
8 8 
8 8 
8 8 
8 8 
8 8 
8 8 
8 8 
8 8 
8 8 
8 8 
8 8 
8 8 
8 8 
8 8 
8 8 
8 8 
8 8 
8 8 
8 8 
8 8 
8 8 
8 8 
8 8 
8 8 
8 8 
8 8 
8 8 
8 8 
8 8 
8 8 
8 8 
8 8 
8 8 
8 8 
8 8 
8 8 
8 8 
8 8 
8 8 
8 8 
8 8 
8 8 
8 8 
8 8 
8 8 
8 8 
8 8 
8 8 
8 8 
8 8 
8 8 
8 8 
8 8 
8 8 
8 8 
8 8 
8 8 
8 8 
8 8 
8 8 
8 8 
8 8 
8 8 
8 8 
8 8 
8 8 
8 8 
8 8 
8 8 
8 8 
8 8 
8 8 
8 8 
8 8 
8 8 
8 8 
8 8 
8 8 
8 8 
8 8 
8 8 
8 8 
8 8 
8 8 
8 8 
8 8 
8 8 
8 8 
8 8 
8 8 
8 8 
8 8 
8 8 
8 8 
8 8 
8 8 
8 8 
8 8 
8 8 
8 8 
8 8 
8 8 
8 8 
8 8 
8 8 
8 8 
8 8 
8 8 
8 8 
8 8 
8 8 
8 8 
8 8 
8 8 
8 8 
8 8 
8 8 
8 8 
8 8 
8 8 
8 8 
8 8 
8 8 
8 8 
8 8 
8 8 
8 8 
8 8 
8 8 
8 8 
8 8 
8 8 
8 8 
8 8 
8 8 
8 8 
8 8 
8 8 
8 8 
8 8 
8 8 
8 8 
8 8 
8 8 
8 8 
8 8 
8 8 
8 8 
8 8 
8 8 
8 8 
8 8 
8 8 
8 8 
8 8 
8 8 
8 8 
8 8 
8 8 
8 8 
8 8 
8 8 
8 8 
8 8 
8 8 
8 8 
8 8 
8 8 
8 8 
8 8 
8 8 
8 8 
8 8 
8 8 
8 8 
8 8 
8 8 
8 8 
8 8 
8 8 
8 8 
8 8 
8 8 
8 8 
8 8 
8 8 
8 8 
8 8 
8 8 
8 8 
8 8 
8 8 
8 8 
8 8 
8 8 
8 8 
8 8 
8 8 
8 8 
8 8 
8 8 
8 8 
8 8 
8 8 
8 8 
8 8 
8 8 
8 8 
8 8 
8 8 
8 8 
8 8 
8 8 
8 8 
8 8 
8 8 
8 8 
8 8 
8 8 
8 8 
8 8 
8 8 
8 8 
8 8 
8 8 
8 8 
8 8 
8 8 
8 8 
8 8 
8 8 
8 8 
8 8 
8 8 
8 8 
8 8 
8 8 
8 8 
8 8 
8 8 
8 8 
8 8 
8 8 
8 8 
8 8 
8 8 
8 8 
8 8 
8 8 
8 8 
8 8 
8 8 
8 8 
8 8 
8 8 
8 8 
8 8 
8 8 
8 8 
8 8 
8 8 
8 8 
8 8 
8 8 
8 8 
8 8 
8 8 
8 8 
8 8 
8 8 
8 8 
8 8 
8 8 
8 8 
8 8 
8 8 
8 8 
8 8 
8 8 
8 8 
8 8 
8 8 
8 8 
8 8 
8 8 
8 8 
8 8 
8 8 
8 8 
8 8 
8 8 
8 8 
8 8 
8 8 
8 8 
8 8 
8 8 
8 8 
8 8 
8 8 
8 8 
8 8 
8 8 
8 8 
8 8 
8 8 
8 8 
8 8 
8 8 
8 8 
8 8 
8 8 
8 8 
8 8 
8 8 
8 8 
8 8 
8 8 
8 8 
8 8 
8 8 
8 8 
8 8 
8 8 
8 8 
8 8 
8 8 
8 8 
8 8 
8 8 
8 8 
8 8 
8 8 
8 8 
8 8 
8 8 
8 8 
8 8 
8 8 
8 8 
8 8 
8 8 
8 8 
8 8 
8 8 
8 8 
8 8 
8 8 
8 8 
8 8 
8 8 
8 8 
8 8 
8 8 
8 8 
8 8 
8 8 
8 8 
8 8 
8 8 
8 8 
8 8 
8 8 
8 8 
8 8 
8 8 
8 8 
8 8 
8 8 
8 8 
8 8 
8 8 
8 8 
8 8 
8 8 
8 8 
8 8 
8 8 
8 8 
8 8 
8 8 
8 8 
8 8 
8 8 
8 8 
8 8 
8 8 
8 8 
8 8 
8 8 
8 8 
8 8 
8 8 
8 8 
8 8 
8 8 
8 8 
8 8 
8 8 
8 8 
8 8 
8 8 
8 8 
8 8 
8 8 
8 8 
8 8 
8 8 
8 8 
8 8 
8 8 
8 8 
8 8 
8 8 
8 8 
8 8 
8 8 
8 8 
8 8 
8 8 
8 8 
8 8 
8 8 
8 8 
8 8 
8 8 
8 8 
8 8 
8 8 
8 8 
8 8 
8 8 
8 8 
8 8 
8 8 
8 8 
8 8 
8 8 
8 8 
8 8 
8 8 
8 8 
8 8 
8 8 
8 8 
8 8 
8 8 
8 8 
8 8 
8 8 
8 8 
8 8 
8 8 
8 8 
8 8 
8 8 
8 8 
8 8 
8 8 
8 8 
8 8 
8 8 
8 8 
8 8 
8 8 
8 8 
8 8 
8 8 
8 8 
8 8 
8 8 
8 8 
8 8 
8 8 
8 8 
8 8 
8 8 
8 8 
8 8 
8 8 
8 8 
8 8 
8 8 
8 8 
8 8 
8 8 
8 8 
8 8 
8 8 
8 8 
8 8 
8 8 
8 8 
8 8 
8 8 
8 8 
8 8 
8 8 
8 8 
8 8 
8 8 
8 8 
8 8 
8 8 
8 8 
8 8 
8 8 
8 8 
8 8 
8 8 
8 8 
8 8 
8 8 
8 8 
8 8 
8 8 
8 8 
8 8 
8 8 
8 8 
8 8 
8 8 
8 8 
8 8 
8 8 
8 8 
8 8 
8 8 
8 8 
8 8 
8 8 
8 8 
8 8 
8 8 
8 8 
8 8 
8 8 
8 8 
8 8 
8 8 
8 8 
8 8 
8 8 
8 8 
8 8 
8 8 
8 8 
8 8 
8 8 
8 8 
8 8 
8 8 
8 8 
8 8 
8 8 
8 8 
8 8 
8 8 
8 8 
8 8 
8 8 
8 8 
8 8 
8 8 
8 8 
8 8 
8 8 
8 8 
8 8 
8 8 
8 8 
8 8 
8 8 
8 8 
8 8 
8 8 
8 8 
8 8 
8 8 
8 8 
8 8 
8 8 
8 8 
8 8 
8 8 
8 8 
8 8 
8 8 
8 8 
8 8 
8 8 
8 8 
8 8 
8 8 
8 8 
8 8 
8 8 
8 8 
8 8 
8 8 
8 8 
8 8 
8 8 
8 8 
8 8 
8 8 
8 8 
8 8 
8 8 
8 8 
8 8 
8 8 
8 8 
8 8 
8 8 
8 8 
8 8 
8 8 
8 8 
8 8 
8 8 
8 8 
8 8 
8 8 
8 8 
8 8 
8 8 
8 8 
8 8 
8 8 
8 8 
8 8 
8 8 
8 8 
8 8 
8 8 
8 8 
8 8 
8 8 
8 8 
8 8 
8 8 
8 8 
8 8 
8 8 
8 8 
8 8 
8 8 
8 8 
8 8 
8 8 
8 8 
8 8 
8 8 
8 8 
8 8 
8 8 
8 8 
8 8 
8 8 
8 8 
8 8 
8 8 
8 8 
8 8 
8 8 
8 8 
8 8 
8 8 
8 8 
8 8 
8 8 
8 8 
8 8 
8 8 
8 8 
8 8 
8 8 
8 8 
8 8 
8 8 
8 8 
8 8 
8 8 
8 8 
8 8 
8 8 
8 8 
8 8 
8 8 
8 8 
8 8 
8 8 
8 8 
8 8 
8 8 
8 8 
8 8 
8 8 
8 8 
8 8 
8 8 
8 8 
8 8 
8 8 
8 8 
8 8 
8 8 
8 8 
8 8 
8 8 
8 8 
8 8 
8 8 
8 8 
8 8 
8 8 
8 8 
8 8 
8 8 
8 8 
8 8 
8 8 
8 8 
8 8 
8 8 
8 8 
8 8 
8 8 
8 8 
8 8 
8 8 
8 8 
8 8 
8 8 
8 8 
8 8 
8 8 
8 8 
8 8 
8 8 
8 8 
8 8 
8 8 
8 8 
8 8 
8 8 
8 8 
8 8 
8 8 
8 8 
8 8 
8 8 
8 8 
8 8 
8 8 
8 8 
8 8 
8 8 
8 8 
8 8 
8 8 
8 8 
8 8 
8 8 
8 8 
8 8 
8 8 
8 8 
8 8 
8 8 
8 8 
8 8 
8 8 
8 8 
8 8 
8 8 
8 8 
8 8 
8 8 
8 8 
8 8 
8 8 
8 8 
8 8 
8 8 
8 8 
8 8 
8 8 
8 8 
8 8 
8 8 
8 8 
8 8 
8 8 
8 8 
8 8 
8 8 
8 8 
8 8 
8 8 
8 8 
8 8 
8 8 
8 8 
8 8 
8 8 
8 8 
8 8 
8 8 
8 8 
8 8 
8 8 
8 8 
8 8 
8 8 
8 8 
8 8 
8 8 
8 8 
8 8 
8 8 
8 8 
8 8 
8 8 
8 8 
8 8 
8 8 
8 8 
8 8 
8 8 
8 8 
8 8 
8 8 
8 8 
8 8 
8 8 
8 8 
8 8 
8 8 
8 8 
8 8 
8 8 
8 8 
8 8 
8 8 
8 8 
8 8 
8 8 
8 8 
8 8 
8 8 
8 8 
8 8 
8 8 
8 8 
8 8 
8 8 
8 8 
8 8 
8 8 
8 8 
8 8 
8 8 
8 8 
8 8 
8 8 
8 8 
8 8 
8 8 
8 8 
8 8 
8 8 
8 8 
8 8 
8 8 
8 8 
8 8 
8 8 
8 8 
8 8 
8 8 
8 8 
8 8 
8 8 
8 8 
8 8 
8 8 
8 8 
8 8 
8 8 
8 8 
8 8 
8 8 
8 8 
8 8 
8 8 
8 8 
8 8 
8 8 
8 8 
8 8 
8 8 
8 8 
8 8 
8 8 
8 8 
8 8 
8 8 
8 8 
8 8 
8 8 
8 8 
8 8 
8 8 
8 8 
8 8 
8 8 
8 8 
8 8 
8 8 
8 8 
8 8 
8 8 
8 8 
8 8 
8 8 
8 8 
8 8 
8 8 
8 8 
8 8 
8 8 
8 8 
8 8 
8 8 
8 8 
8 8 
8 8 
8 8 
8 8 
8 8 
8 8 
8 8 
8 8 
8 8 
8 8 
8 8 
8 8 
8 8 
8 8 
8 8 
8 8 
8 8 
8 8 
8 8 
8 8 
8 8 
8 8 
8 8 
8 8 
8 8 
8 8 
8 8 
8 8 
8 8 
8 8 
8 8 
8 8 
8 8 
8 8 
8 8 
8 8 
8 8 
8 8 
8 8 
8 8 
8 8 
8 8 
8 8 
8 8 
8 8 
8 8 
8 8 
8 8 
8 8 
8 8 
8 8 
8 8 
8 8 
8 8 
8 8 
8 8 
8 8 
8 8 
8 8 
8 8 
8 8 
8 8 
8 8 
8 8 
8 8 
8 8 
8 8 
8 8 
8 8 
8 8 
8 8 
8 8 
8 8 
8 8 
8 8 
8 8 
8 8 
8 8 
8 8 
8 8 
8 8 
8 8 
8 8 
8 8 
8 8 
8 8 
8 8 
8 8 
8 8 
8 8 
8 8 
8 8 
8 8 
8 8 
8 8 
8 8 
8 8 
8 8 
8 8 
8 8 
8 8 
8 8 
8 8 
8 8 
8 8 
8 8 
8 8 
8 8 
8 8 
8 8 
8 8 
8 8 
8 8 
8 8 
8 8 
8 8 
8 8 
8 8 
8 8 
8 8 
8 8 
8 8 
8 8 
8 8 
8 8 
8 8 
8 8 
8 8 
8 8 
8 8 
8 8 
8 8 
8 8 
8 8 
8 8 
8 8 
8 8 
8 8 
8 8 
8 8 
8 8 
8 8 
8 8 
8 8 
8 8 
8 8 
8 8 
8 8 
8 8 
8 8 
8 8 
8 8 
8 8 
8 8 
8 8 
8 8 
8 8 
8 8 
8 8 
8 8 
8 8 
8 8 
8 8 
8 8 
8 8 
8 8 
8 8 
8 8 
8 8 
8 8 
8 8 
8 8 
8 8 
8 8 
8 8 
8 8 
8 8 
8 8 
8 8 
8 8 
8 8 
8 8 
8 8 
8 8 
8 8 
8 8 
8 8 
8 8 
8 8 
8 8 
8 8 
8 8 
8 8 
8 8 
8 8 
8 8 
8 8 
8 8 
8 8 
8 8 
8 8 
8 8 
8 8 
8 8 
8 8 
8 8 
8 8 
8 8 
8 8 
8 8 
8 8 
8 8 
8 8 
8 8 
8 8 
8 8 
8 8 
8 8 
8 8 
8 8 
8 8 
8 8 
8 8 
8 8 
8 8 
8 8 
8 8 
8 8 
8 8 
8 8 
8 8 
8 8 
8 8 
8 8 
8 8 
8 8 
8 8 
8 8 
8 8 
8 8 
8 8 
8 8 
8 8 
8 8 
8 8 
8 8 
8 8 
8 8 
8 8 
8 8 
8 8 
8 8 
8 8 
8 8 
8 8 
8 8 
8 8 
8 8 
8 8 
8 8 
8 8 
8 8 
8 8 
8 8 
8 8 
8 8 
8 8 
8 8 
8 8 
8 8 
8 8 
8 8 
8 8 
8 8 
8 8 
8 8 
8 8 
8 8 
8 8 
8 8 
8 8 
8 8 
8 8 
8 8 
8 8 
8 8 
8 8 
8 8 
8 8 
8 8 
8 8 
8 8 
8 8 
8 8 
8 8 
8 8 
8 8 
8 8 
8 8 
8 8 
8 8 
8 8 
8 8 
8 8 
8 8 
8 8 
8 8 
8 8 
8 8 
8 8 
8 8 
8 8 
8 8 
8 8 
8 8 
8 8 
8 8 
8 8 
8 8 
8 8 
8 8 
8 8 
8 8 
8 8 
8 8 
8 8 
8 8 
8 8 
8 8 
8 8 
8 8 
8 8 
8 8 
8 8 
8 8 
8 8 
8 8 
8 8 
8 8 
8 8 
8 8 
8 8 
8 8 
8 8 
8 8 
8 8 
8 8 
8 8 
8 8 
8 8 
8 8 
8 8 
8 8 
8 8 
8 8 
8 8 
8 8 
8 8 
8 8 
8 8 
8 8 
8 8 
8 8 
8 8 
8 8 
8 8 
8 8 
8 8 
8 8 
8 8 
8 8 
8 8 
8 8 
8 8 
8 8 
8 8 
8 8 
8 8 
8 8 
8 8 
8 8 
8 8 
8 8 
8 8 
8 8 
8 8 
8 8 
8 8 
8 8 
8 8 
8 8 
8 8 
8 8 
8 8 
8 8 
8 8 
8 8 
8 8 
8 8 
8 8 
8 8 
8 8 
8 8 
8 8 
8 8 
8 8 
8 8 
8 8 
8 8 
8 8 
8 8 
8 8 
8 8 
8 8 
8 8 
8 8 
8 8 
8 8 
8 8 
8 8 
8 8 
8 8 
8 8 
8 8 
8 8 
8 8 
8 8 
8 8 
8 8 
8 8 
8 8 
8 8 
8 8 
8 8 
8 8 
8 8 
8 8 
8 8 
8 8 
8 8 
8 8 
8 8 
8 8 
8 8 
8 8 
8 8 
8 8 
8 8 
8 8 
8 8 
8 8 
8 8 
8 8 
8 8 
8 8 
8 8 
8 8 
8 8 
8 8 
8 8 
8 8 
8 8 
8 8 
8 8 
8 8 
8 8 
8 8 
8 8 
8 8 
8 8 
8 8 
8 8 
8 8 
8 8 
8 8 
8 8 
8 8 
8 8 
8 8 
8 8 
8 8 
8 8 
8 8 
8 8 
8 8 
8 8 
8 8 
8 8 
8 8 
8 8 
8 8 
8 8 
8 8 
8 8 
8 8 
8 8 
8 8 
8 8 
8 8 
8 8 
8 8 
8 8 
8 8 
8 8 
8 8 
8 8 
8 8 
8 8 
8 8 
8 8 
8 8 
8 8 
8 8 
8 8 
8 8 
8 8 
8 8 
8 8 
8 8 
8 8 
8 8 
8 8 
8 8 
8 8 
8 8 
8 8 
8 8 
8 8 
8 8 
8 8 
8 8 
8 8 
8 8 
8 8 
8 8 
8 8 
8 8 
8 8 
8 8 
8 8 
8 8 
8 8 
8 8 
8 8 
8 8 
8 8 
8 8 
8 8 
8 8 
8 8 
8 8 
8 8 
8 8 
8 8 
8 8 
8 8 
8 8 
8 8 
8 8 
8 8 
8 8 
8 8 
8 8 
8 8 
8 8 
8 8 
8 8 
8 8 
8 8 
8 8 
8 8 
8 8 
8 8 
8 8 
8 8 
8 8 
8 8 
8 8 
8 8 
8 8 
8 8 
8 8 
8 8 
8 8 
8 8 
8 8 
8 8 
8 8 
8 8 
8 8 
8 8 
8 8 
8 8 
8 8 
8 8 
8 8 
8 8 
8 8 
8 8 
8 8 
8 8 
8 8 
8 8 
8 8 
8 8 
8 8 
8 8 
8 8 
8 8 
8 8 
8 8 
8 8 
8 8 
8 8 
8 8 
8 8 
8 8 
8 8 
8 8 
8 8 
8 8 
8 8 
8 8 
8 8 
8 8 
8 8 
8 8 
8 8 
8 8 
8 8 
8 8 
8 8 
8 8 
8 8 
8 8 
8 8 
8 8 
8 8 
8 8 
8 8 
8 8 
8 8 
8 8 
8 8 
8 8 
8 8 
8 8 
8 8 
8 8 
8 8 
8 8 
8 8 
8 8 
8 8 
8 8 
8 8 
8 8 
8 8 
8 8 
8 8 
8 8 
8 8 
8 8 
8 8 
8 8 
8 8 
8 8 
8 8 
8 8 
8 8 
8 8 
8 8 
8 8 
8 8 
8 8 
8 8 
8 8 
8 8 
8 8 
8 8 
8 8 
8 8 
8 8 
8 8 
8 8 
8 8 
8 8 
8 8 
8 8 
8 8 
8 8 
8 8 
8 8 
8 8 
8 8 
8 8 
8 8 
8 8 
8 8 
8 8 
8 8 
8 8 
8 8 
8 8 
8 8 
8 8 
8 8 
8 8 
8 8 
8 8 
8 8 
8 8 
8 8 
8 8 
8 8 
8 8 
8 8 
8 8 
8 8 
8 8 
8 8 
8 8 
8 8 
8 8 
8 8 
8 8 
8 8 
8 8 
8 8 
8 8 
8 8 
8 8 
8 8 
8 8 
8 8 
8 8 
8 8 
8 8 
8 8 
8 8 
8 8 
8 8 
8 8 
8 8 
8 8 
8 8 
8 8 
8 8 
8 8 
8 8 
8 8 
8 8 
8 8 
8 8 
8 8 
8 8 
8 8 
8 8 
8 8 
8 8 
8 8 
8 8 
8 8 
8 8 
8 8 
8 8 
8 8 
8 8 
8 8 
8 8 
8 8 
8 8 
8 8 
8 8 
8 8 
8 8 
8 8 
8 8 
8 8 
8 8 
8 8 
8 8 
8 8 
8 8 
8 8 
8 8 
8 8 
8 8 
8 8 
8 8 
8 8 
8 8 
8 8 
8 8 
8 8 
8 8 
8 8 
8 8 
8 8 
8 8 
8 8 
8 8 
8 8 
8 8 
8 8 
8 8 
8 8 
8 8 
8 8 
8 8 
8 8 
8 8 
8 8 
8 8 
8 8 
8 8 
8 8 
8 8 
8 8 
8 8 
8 8 
8 8 
8 8 
8 8 
8 8 
8 8 
8 8 
8 8 
8 8 
8 8 
8 8 
8 8 
8 8 
8 8 
8 8 
8 8 
8 8 
8 8 
8 8 
8 8 
8 8 
8 8 
8 8 
8 8 
8 8 
8 8 
8 8 
8 8 
8 8 
8 8 
8 8 
8 8 
8 8 
8 8 
8 8 
8 8 
8 8 
8 8 
8 8 
8 8 
8 8 
8 8 
8 8 
8 8 
8 8 
8 8 
8 8 
8 8 
8 8 
8 8 
8 8 
8 8 
8 8 
8 8 
8 8 
8 8 
8 8 
8 8 
8 8 
8 8 
8 8 
8 8 
8 8 
8 8 
8 8 
8 8 
8 8 
8 8 
8 8 
8 8 
8 8 
8 8 
8 8 
8 8 
8 8 
8 8 
8 8 
8 8 
8 8 
8 8 
8 8 
8 8 
8 8 
8 8 
8 8 
8 8 
8 8 
8 8 
8 8 
8 8 
8 8 
8 8 
8 8 
8 8 
8 8 
8 8 
8 8 
8 8 
8 8 
8 8 
8 8 
8 8 
8 8 
8 8 
8 8 
8 8 
8 8 
8 8 
8 8 
8 8 
8 8 
8 8 
8 8 
8 8 
8 8 
8 8 
8 8 
8 8 
8 8 
8 8 
8 8 
8 8 
8 8 
8 8 
8 8 
8 8 
8 8 
8 8 
8 8 
8 8 
8 8 
8 8 
8 8 
8 8 
8 8 
8 8 
8 8 
8 8 
8 8 
8 8 
8 8 
8 8 
8 8 
8 8 
8 8 
8 8 
8 8 
8 8 
8 8 
8 8 
8 8 
8 8 
8 8 
8 8 
8 8 
8 8 
8 8 
8 8 
8 8 
8 8 
8 8 
8 8 
8 8 
8 8 
8 8 
8 8 
8 8 
8 8 
8 8 
8 8 
8 8 
8 8 
8 8 
8 8 
8 8 
8 8 
8 8 
8 8 
8 8 
8 8 
8 8 
8 8 
8 8 
8 8 
8 8 
8 8 
8 8 
8 8 
8 8 
8 8 
8 8 
8 8 
8 8 
8 8 
8 8 
8 8 
8 8 
8 8 
8 8 
8 8 
8 8 
8 8 
8 8 
8 8 
8 8 
8 8 
8 8 
8 8 
8 8 
8 8 
8 8 
8 8 
8 8 
8 8 
8 8 
8 8 
8 8 
8 8 
8 8 
8 8 
8 8 
8 8 
8 8 
8 8 
8 8 
8 8 
8 8 
8 8 
8 8 
8 8 
8 8 
8 8 
8 8 
8 8 
8 8 
8 8 
8 8 
8 8 
8 8 
8 8 
8 8 
8 8 
8 8 
8 8 
8 8 
8 8 
8 8 
8 8 
8 8 
8 8 
8 8 
8 8 
8 8 
8 8 
8 8 
8 8 
8 8 
8 8 
8 8 
8 8 
8 8 
8 8 
8 8 
8 8 
8 8 
8 8 
8 8 
8 8 
8 8 
8 8 
8 8 
8 8 
8 8 
8 8 
8 8 
8 8 
8 8 
8 8 
8 8 
8 8 
8 8 
8 8 
8 8 
8 8 
8 8 
8 8 
8 8 
8 8 
8 8 
8 8 
8 8 
8 8 
8 8 
8 8 
8 8 
8 8 
8 8 
8 8 
8 8 
8 8 
8 8 
8 8 
8 8 
8 8 
8 8 
8 8 
8 8 
8 8 
8 8 
8 8 
8 8 
8 8 
8 8 
8 8 
8 8 
8 8 
8 8 
8 8 
8 8 
8 8 
8 8 
8 8 
8 8 
8 8 
8 8 
8 8 
8 8 
8 8 
8 8 
8 8 
8 8 
8 8 
8 8 
8 8 
8 8 
8 8 
8 8 
8 8 
8 8 
8 8 
8 8 
8 8 
8 8 
8 8 
8 8 
8 8 
8 8 
8 8 
8 8 
8 8 
8 8 
8 8 
8 8 
8 8 
8 8 
8 8 
8 8 
8 8 
8 8 
8 8 
8 8 
8 8 
8 8 
8 8 
8 8 
8 8 
8 8 
8 8 
8 8 
8 8 
8 8 
8 8 
8 8 
8 8 
8 8 
8 8 
8 8 
8 8 
8 8 
8 8 
8 8 
8 8 
8 8 
8 8 
8 8 
8 8 
8 8 
8 8 
8 8 
8 8 
8 8 
8 8 
8 8 
8 8 
8 8 
8 8 
8 8 
8 8 
8 8 
8 8 
8 8 
8 8 
8 8 
8 8 
8 8 
8 8 
8 8 
8 8 
8 8 
8 8 
8 8 
8 8 
8 8 
8 8 
8 8 
8 8 
8 8 
8 8 
8 8 
8 8 
8 8 
8 8 
8 8 
8 8 
8 8 
8 8 
8 8 
8 8 
8 8 
8 8 
8 8 
8 8 
8 8 
8 8 
8 8 
8 8 
8 8 
8 8 
8 8 
8 8 
8 8 
8 8 
8 8 
8 8 
8 8 
8 8 
8 8 
8 8 
8 8 
8 8 
8 8 
8 8 
8 8 
8 8 
8 8 
8 8 
8 8 
8 8 
8 8 
8 8 
8 8 
8 8 
8 8 
8 8 
8 8 
8 8 
8 8 
8 8 
8 8 
8 8 
8 8 
8 8 
8 8 
8 8 
8 8 
8 8 
8 8 
8 8 
8 8 
8 8 
8 8 
8 8 
8 8 
8 8 
8 8 
8 8 
8 8 
8 8 
8 8 
8 8 
8 8 
8 8 
8 8 
8 8 
8 8 
8 8 
8 8 
8 8 
8 8 
8 8 
8 8 
8 8 
8 8 
8 8 
8 8 
8 8 
8 8 
8 8 
8 8 
8 8 
8 8 
8 8 
8 8 
8 8 
8 8 
8 8 
8 8 
8 8 
8 8 
8 8 
8 8 
8 8 
8 8 
8 8 
8 8 
8 8 
8 8 
8 8 
8 8 
8 8 
8 8 
8 8 
8 8 
8 8 
8 8 
8 8 
8 8 
8 8 
8 8 
8 8 
8 8 
8 8 
8 8 
8 8 
8 8 
8 8 
8 8 
8 8 
8 8 
8 8 
8 8 
8 8 
8 8 
8 8 
8 8 
8 8 
8 8 
8 8 
8 8 
8 8 
8 8 
8 8 
8 8 
8 8 
8 8 
8 8 
8 8 
8 8 
8 8 
8 8 
8 8 
8 8 
8 8 
8 8 
8 8 
8 8 
8 8 
8 8 
8 8 
8 8 
8 8 
8 8 
8 8 
8 8 
8 8 
8 8 
8 8 
8 8 
8 8 
8 8 
8 8 
8 8 
8 8 
8 8 
8 8 
8 8 
8 8 
8 8 
8 8 
8 8 
8 8 
8 8 
8 8 
8 8 
8 8 
8 8 
8 8 
8 8 
8 8 
8 8 
8 8 
8 8 
8 8 
8 8 
8 8 
8 8 
8 8 
8 8 
8 8 
8 8 
8 8 
8 8 
8 8 
8 8 
8 8 
8 8 
8 8 
8 8 
8 8 
8 8 
8 8 
8 8 
8 8 
8 8 
8 8 
8 8 
8 8 
8 8 
8 8 
8 8 
8 8 
8 8 
8 8 
8 8 
8 8 
8 8 
8 8 
8 8 
8 8 
8 8 
8 8 
8 8 
8 8 
8 8 
8 8 
8 8 
8 8 
8 8 
8 8 
8 8 
8 8 
8 8 
8 8 
8 8 
8 8 
8 8 
8 8 
8 8 
8 8 
8 8 
8 8 
8 8 
8 8 
8 8 
8 8 
8 8 
8 8 
8 8 
8 8 
8 8 
8 8 
8 8 
8 8 
8 8 
8 8 
8 8 
8 8 
8 8 
8 8 
8 8 
8 8 
8 8 
8 8 
8 8 
8 8 
8 8 
8 8 
8 8 
8 8 
8 8 
8 8 
8 8 
8 8 
8 8 
8 8 
8 8 
8 8 
8 8 
8 8 
8 8 
8 8 
8 8 
8 8 
8 8 
8 8 
8 8 
8 8 
8 8 
8 8 
8 8 
8 8 
8 8 
8 8 
8 8 
8 8 
8 8 
8 8 
8 8 
8 8 
8 8 
8 8 
8 8 
8 8 
8 8 
8 8 
8 8 
8 8 
8 8 
8 8 
8 8 
8 8 
8 8 
8 8 
8 8 
8 8 
8 8 
8 8 
8 8 
8 8 
8 8 
8 8 
8 8 
8 8 
8 8 
8 8 
8 8 
8 8 
8 8 
8 8 
8 8 
8 8 
8 8 
8 8 
8 8 
8 8 
8 8 
8 8 
8 8 
8 8 
8 8 
8 8 
8 8 
8 8 
8 8 
8 8 
8 8 
8 8 
8 8 
8 8 
8 8 
8 8 
8 8 
8 8 
8 8 
8 8 
8 8 
8 8 
8 8 
8 8 
8 8 
8 8 
8 8 
8 8 
8 8 
8 8 
8 8 
8 8 
8 8 
8 8 
8 8 
8 8 
8 8 
8 8 
8 8 
8 8 
8 8 
8 8 
8 8 
8 8 
8 8 
8 8 
8 8 
8 8 
8 8 
8 8 
8 8 
8 8 
8 8 
8 8 
8 8 
8 8 
8 8 
8 8 
8 8 
8 8 
8 8 
8 8 
8 8 
8 8 
8 8 
8 8 
8 8 
8 8 
8 8 
8 8 
8 8 
8 8 
8 8 
8 8 
8 8 
8 8 
8 8 
8 8 
8 8 
8 8 
8 8 
8 8 
8 8 
8 8 
8 8 
8 8 
8 8 
8 8 
8 8 
8 8 
8 8 
8 8 
8 8 
8 8 
8 8 
8 8 
8 8 
8 8 
8 8 
8 8 
8 8 
8 8 
8 8 
8 8 
8 8 
8 8 
8 8 
8 8 
8 8 
8 8 
8 8 
8 8 
8 8 
8 8 
8 8 
8 8 
8 8 
8 8 
8 8 
8 8 
8 8 
8 8 
8 8 
8 8 
8 8 
8 8 
8 8 
8 8 
8 8 
8 8 
8 8 
8 8 
8 8 
8 8 
8 8 
8 8 
8 8 
8 8 
8 8 
8 8 
8 8 
8 8 
8 8 
8 8 
8 8 
8 8 
8 8 
8 8 
8 8 
8 8 
8 8 
8 8 
8 8 
8 8 
8 8 
8 8 
8 8 
8 8 
8 8 
8 8 
8 8 
8 8 
8 8 
8 8 
8 8 
8 8 
8 8 
8 8 
8 8 
8 8 
8 8 
8 8 
8 8 
8 8 
8 8 
8 8 
8 8 
8 8 
8 8 
8 8 
8 8 
8 8 
8 8 
8 8 
8 8 
8 8 
8 8 
8 8 
8 8 
8 8 
8 8 
8 8 
8 8 
8 8 
8 8 
8 8 
8 8 
8 8 
8 8 
8 8 
8 8 
8 8 
8 8 
8 8 
8 8 
8 8 
8 8 
8 8 
8 8 
8 8 
8 8 
8 8 
8 8 
8 8 
8 8 
8 8 
8 8 
8 8 
8 8 
8 8 
8 8 
8 8 
8 8 
8 8 
8 8 
8 8 
8 8 
8 8 
8 8 
8 8 
8 8 
8 8 
8 8 
8 8 
8 8 
8 8 
8 8 
8 8 
8 8 
8 8 
8 8 
8 8 
8 8 
8 8 
8 8 
8 8 
8 8 
8 8 
8 8 
8 8 
8 8 
8 8 
8 8 
8 8 
8 8 
8 8 
8 8 
8 8 
8 8 
8 8 
8 8 
8 8 
8 8 
8 8 
8 8 
8 8 
8 8 
8 8 
8 8 
8 8 
8 8 
8 8 
8 8 
8 8 
8 8 
8 8 
8 8 
8 8 
8 8 
8 8 
8 8 
8 8 
8 8 
8 8 
8 8 
8 8 
8 8 
8 8 
8 8 
8 8 
8 8 
8 8 
8 8 
8 8 
8 8 
8 8 
8 8 
8 8 
8 8 
8 8 
8 8 
8 8 
8 8 
8 8 
8 8 
8 8 
8 8 
8 8 
8 8 
8 8 
8 8 
8 8 
8 8 
8 8 
8 8 
8 8 
8 8 
8 8 
8 8 
8 8 
8 8 
8 8 
8 8 
8 8 
8 8 
8 8 
8 8 
8 8 
8 8 
8 8 
8 8 
8 8 
8 8 
8 8 
8 8 
8 8 
8 8 
8 8 
8 8 
8 8 
8 8 
8 8 
8 8 
8 8 
8 8 
8 8 
8 8 
8 8 
8 8 
8 8 
8 8 
8 8 
8 8 
8 8 
8 8 
8 8 
8 8 
8 8 
8 8 
8 8 
8 8 
8 8 
8 8 
8 8 
8 8 
8 8 
8 8 
8 8 
8 8 
8 8 
8 8 
8 8 
8 8 
8 8 
8 8 
8 8 
8 8 
8 8 
8 8 
8 8 
8 8 
8 8 
8 8 
8 8 
8 8 
8 8 
8 8 
8 8 
8 8 
8 8 
8 8 
8 8 
8 8 
8 8 
8 8 
8 8 
8 8 
8 8 
8 8 
8 8 
8 8 
8 8 
8 8 
8 8 
8 8 
8 8 
8 8 
8 8 
8 8 
8 8 
8 8 
8 8 
8 8 
8 8 
8 8 
8 8 
8 8 
8 8 
8 8 
8 8 
8 8 
8 8 
8 8 
8 8 
8 8 
8 8 
8 8 
8 8 
8 8 
8 8 
8 8 
8 8 
8 8 
8 8 
8 8 
8 8 
8 8 
8 8 
8 8 
8 8 
8 8 
8 8 
8 8 
8 8 
8 8 
8 8 
8 8 
8 8 
8 8 
8 8 
8 8 
8 8 
8 8 
8 8 
8 8 
8 8 
8 8 
8 8 
8 8 
8 8 
8 8 
8 8 
8 8 
8 8 
8 8 
8 8 
8 8 
8 8 
8 8 
8 8 
8 8 
8 8 
8 8 
8 8 
8 8 
8 8 
8 8 
8 8 
8 8 
8 8 
8 8 
8 8 
8 8 
8 8 
8 8 
8 8 
8 8 
8 8 
8 8 
8 8 
8 8 
8 8 
8 8 
8 8 
8 8 
8 8 
8 8 
8 8 
8 8 
8 8 
8 8 
8 8 
8 8 
8 8 
8 8 
8 8 
8 8 
8 8 
8 8 
8 8 
8 8 
8 8 
8 8 
8 8 
8 8 
8 8 
8 8 
8 8 
8 8 
8 8 
8 8 
8 8 
8 8 
8 8 
8 8 
8 8 
8 8 
8 8 
8 8 
8 8 
8 8 
8 8 
8 8 
8 8 
8 8 
8 8 
8 8 
8 8 
8 8 
8 8 
8 8 
8 8 
8 8 
8 8 
8 8 
8 8 
8 8 
8 8 
8 8 
8 8 
8 8 
8 8 
8 8 
8 8 
8 8 
8 8 
8 8 
8 8 
8 8 
8 8 
8 8 
8 8 
8 8 
8 8 
8 8 
8 8 
8 8 
8 8 
8 8 
8 8 
8 8 
8 8 
8 8 
8 8 
8 8 
8 8 
8 8 
8 8 
8 8 
8 8 
8 8 
8 8 
8 8 
8 8 
8 8 
8 8 
8 8 
8 8 
8 8 
8 8 
8 8 
8 8 
8 8 
8 8 
8 8 
8 8 
8 8 
8 8 
8 8 
8 8 
8 8 
8 8 
8 8 
8 8 
8 8 
8 8 
8 8 
8 8 
8 8 
8 8 
8 8 
8 8 
8 8 
8 8 
8 8 
8 8 
8 8 
8 8 
8 8 
8 8 
8 8 
8 8 
8 8 
8 8 
8 8 
8 8 
8 8 
8 8 
8 8 
8 8 
8 8 
8 8 
8 8 
8 8 
8 8 
8 8 
8 8 
8 8 
8 8 
8 8 
8 8 
8 8 
8 8 
8 8 
8 8 
8 8 
8 8 
8 8 
8 8 
8 8 
8 8 
8 8 
8 8 
8 8 
8 8 
8 8 
8 8 
8 8 
8 8 
8 8 
8 8 
8 8 
8 8 
8 8 
8 8 
8 8 
8 8 
8 8 
8 8 
8 8 
8 8 
8 8 
8 8 
8 8 
8 8 
8 8 
8 8 
8 8 
8 8 
8 8 
8 8 
8 8 
8 8 
8 8 
8 8 
8 8 
8 8 
8 8 
8 8 
8 8 
8 8 
8 8 
8 8 
8 8 
8 8 
8 8 
8 8 
8 8 
8 8 
8 8 
8 8 
8 8 
8 8 
8 8 
8 8 
8 8 
8 8 
8 8 
8 8 
8 8 
8 8 
8 8 
8 8 
8 8 
8 8 
8 8 
8 8 
8 8 
8 8 
8 8 
8 8 
8 8 
8 8 
8 8 
8 8 
8 8 
8 8 
8 8 
8 8 
8 8 
8 8 
8 8 
8 8 
8 8 
8 8 
8 8 
8 8 
8 8 
8 8 
8 8 
8 8 
8 8 
8 8 
8 8 
8 8 
8 8 
8 8 
8 8 
8 8 
8 8 
8 8 
8 8 
8 8 
8 8 
8 8 
8 8 
8 8 
8 8 
8 8 
8 8 
8 8 
8 8 
8 8 
8 8 
8 8 
8 8 
8 8 
8 8 
8 8 
8 8 
8 8 
8 8 
8 8 
8 8 
8 8 
8 8 
8 8 
8 8 
8 8 
8 8 
8 8 
8 8 
8 8 
8 8 
8 8 
8 8 
8 8 
8 8 
8 8 
8 8 
8 8 
8 8 
8 8 
8 8 
8 8 
8 8 
8 8 
8 8 
8 8 
8 8 
8 8 
8 8 
8 8 
8 8 
8 8 
8 8 
8 8 
8 8 
8 8 
8 8 
8 8 
8 8 
8 8 
8 8 
8 8 
8 8 
8 8 
8 8 
8 8 
8 8 
8 8 
8 8 
8 8 
8 8 
8 8 
8 8 
8 8 
8 8 
8 8 
8 8 
8 8 
8 8 
8 8 
8 8 
8 8 
8 8 
8 8 
8 8 
8 8 
8 8 
8 8 
8 8 
8 8 
8 8 
8 8 
8 8 
8 8 
8 8 
8 8 
8 8 
8 8 
8 8 
8 8 
8 8 
8 8 
8 8 
8 8 
8 8 
8 8 
8 8 
8 8 
8 8 
8 8 
8 8 
8 8 
8 8 
8 8 
8 8 
8 8 
8 8 
8 8 
8 8 
8 8 
8 8 
8 8 
8 8 
8 8 
8 8 
8 8 
8 8 
8 8 
8 8 
8 8 
8 8 
8 8 
8 8 
8 8 
8 8 
8 8 
8 8 
8 8 
8 8 
8 8 
8 8 
8 8 
8 8 
8 8 
8 8 
8 8 
8 8 
8 8 
8 8 
8 8 
8 8 
8 8 
8 8 
8 8 
8 8 
8 8 
8 8 
8 8 
8 8 
8 8 
8 8 
8 8 
8 8 
8 8 
8 8 
8 8 
8 8 
8 8 
8 8 
8 8 
8 8 
8 8 
8 8 
8 8 
8 8 
8 8 
8 8 
8 8 
8 8 
8 8 
8 8 
8 8 
8 8 
8 8 
8 8 
8 8 
8 8 
8 8 
8 8 
8 8 
8 8 
8 8 
8 8 
8 8 
8 8 
8 8 
8 8 
8 8 
8 8 
8 8 
8 8 
8 8 
8 8 
8 8 
8 8 
8 8 
8 8 
8 8 
8 8 
8 8 
8 8 
8 8 
8 8 
8 8 
8 8 
8 8 
8 8 
8 8 
8 8 
8 8 
8 8 
8 8 
8 8 
8 8 
8 8 
8 8 
8 8 
8 8 
8 8 
8 8 
8 8 
8 8 
8 8 
8 8 
8 8 
8 8 
8 8 
8 8 
8 8 
8 8 
8 8 
8 8 
8 8 
8 8 
8 8 
8 8 
8 8 
8 8 
8 8 
8 8 
8 8 
8 8 
8 8 
8 8 
8 8 
8 8 
8 8 
8 8 
8 8 
8 8 
8 8 
8 8 
8 8 
8 8 
8 8 
8 8 
8 8 
8 8 
8 8 
8 8 
8 8 
8 8 
8 8 
8 8 
8 8 
8 8 
8 8 
8 8 
8 8 
8 8 
8 8 
8 8 
8 8 
8 8 
8 8 
8 8 
8 8 
8 8 
8 8 
8 8 
8 8 
8 8 
8 8 
8 8 
8 8 
8 8 
8 8 
8 8 
8 8 
8 8 
8 8 
8 8 
8 8 
8 8 
8 8 
8 8 
8 8 
8 8 
8 8 
8 8 
8 8 
8 8 
8 8 
8 8 
8 8 
8 8 
8 8 
8 8 
8 8 
8 8 
8 8 
8 8 
8 8 
8 8 
8 8 
8 8 
8 8 
8 8 
8 8 
8 8 
8 8 
8 8 
8 8 
8 8 
8 8 
8 8 
8 8 
8 8 
8 8 
8 8 
8 8 
8 8 
8 8 
8 8 
8 8 
8 8 
8 8 
8 8 
8 8 
8 8 
8 8 
8 8 
8 8 
8 8 
8 8 
8 8 
8 8 
8 8 
8 8 
8 8 
8 8 
8 8 
8 8 
8 8 
8 8 
8 8 
8 8 
8 8 
8 8 
8 8 
8 8 
8 8 
8 8 
8 8 
8 8 
8 8 
8 8 
8 8 
8 8 
8 8 
8 8 
8 8 
8 8 
8 8 
8 8 
8 8 
8 8 
8 8 
8 8 
8 8 
8 8 
8 8 
8 8 
8 8 
8 8 
8 8 
8 8 
8 8 
8 8 
8 8 
8 8 
8 8 
8 8 
8 8 
8 8 
8 8 
8 8 
8 8 
8 8 
8 8 
8 8 
8 8 
8 8 
8 8 
8 8 
8 8 
8 8 
8 8 
8 8 
8 8 
8 8 
8 8 
8 8 
8 8 
8 8 
8 8 
8 8 
8 8 
8 8 
8 8 
8 8 
8 8 
8 8 
8 8 
8 8 
8 8 
8 8 
8 8 
8 8 
8 8 
8 8 
8 8 
8 8 
8 8 
8 8 
8 8 
8 8 
8 8 
8 8 
8 8 
8 8 
8 8 
8 8 
8 8 
8 8 
8 8 
8 8 
8 8 
8 8 
8 8 
8 8 
8 8 
8 8 
8 8 
8 8 
8 8 
8 8 
8 8 
8 8 
8 8 
8 8 
8 8 
8 8 
8 8 
8 8 
8 8 
8 8 
8 8 
8 8 
8 8 
8 8 
8 8 
8 8 
8 8 
8 8 
8 8 
8 8 
8 8 
8 8 
8 8 
8 8 
8 8 
8 8 
8 8 
8 8 
8 8 
8 8 
8 8 
8 8 
8 8 
8 8 
8 8 
8 8 
8 8 
8 8 
8 8 
8 8 
8 8 
8 8 
8 8 
8 8 
8 8 
8 8 
8 8 
8 8 
8 8 
8 8 
8 8 
8 8 
8 8 
8 8 
8 8 
8 8 
8 8 
8 8 
8 8 
8 8 
8 8 
8 8 
8 8 
8 8 
8 8 
8 8 
8 8 
8 8 
8 8 
8 8 
8 8 
8 8 
8 8 
8 8 
8 8 
8 8 
8 8 
8 8 
8 8 
8 8 
8 8 
8 8 
8 8 
8 8 
8 8 
8 8 
8 8 
8 8 
8 8 
8 8 
8 8 
8 8 
8 8 
8 8 
8 8 
8 8 
8 8 
8 8 
8 8 
8 8 
8 8 
8 8 
8 8 
8 8 
8 8 
8 8 
8 8 
8 8 
8 8 
8 8 
8 8 
8 8 
8 8 
8 8 
8 8 
8 8 
8 8 
8 8 
8 8 
8 8 
8 8 
8 8 
8 8 
8 8 
8 8 
8 8 
8 8 
8 8 
8 8 
8 8 
8 8 
8 8 
8 8 
8 8 
8 8 
8 8 
8 8 
8 8 
8 8 
8 8 
8 8 
8 8 
8 8 
8 8 
8 8 
8 8 
8 8 
8 8 
8 8 
8 8 
8 8 
8 8 
8 8 
8 8 
8 8 
8 8 
8 8 
8 8 
8 8 
8 8 
8 8 
8 8 
8 8 
8 8 
8 8 
8 8 
8 8 
8 8 
8 8 
8 8 
8 8 
8 8 
8 8 
8 8 
8 8 
8 8 
8 8 
8 8 
8 8 
8 8 
8 8 
8 8 
8 8 
8 8 
8 8 
8 8 
8 8 
8 8 
8 8 
8 8 
8 8 
8 8 
8 8 
8 8 
8 8 
8 8 
8 8 
8 8 
8 8 
8 8 
8 8 
8 8 
8 8 
8 8 
8 8 
8 8 
8 8 
8 8 
8 8 
8 8 
8 8 
8 8 
8 8 
8 8 
8 8 
8 8 
8 8 
8 8 
8 8 
8 8 
8 8 
8 8 
8 8 
8 8 
8 8 
8 8 
8 8 
8 8 
8 8 
8 8 
8 8 
8 8 
8 8 
8 8 
8 8 
8 8 
8 8 
8 8 
8 8 
8 8 
8 8 
8 8 
8 8 
8 8 
8 8 
8 8 
8 8 
8 8 
8 8 
8 8 
8 8 
8 8 
8 8 
8 8 
8 8 
8 8 
8 8 
8 8 
8 8 
8 8 
8 8 
8 8 
8 8 
8 8 
8 8 
8 8 
8 8 
8 8 
8 8 
8 8 
8 8 
8 8 
8 8 
8 8 
8 8 
8 8 
8 8 
8 8 
8 8 
8 8 
8 8 
8 8 
8 8 
8 8 
8 8 
8 8 
8 8 
8 8 
8 8 
8 8 
8 8 
8 8 
8 8 
8 8 
8 8 
8 8 
8 8 
8 8 
8 8 
8 8 
8 8 
8 8 
8 8 
8 8 
8 8 
8 8 
8 8 
8 8 
8 8 
8 8 
8 8 
8 8 
8 8 
8 8 
8 8 
8 8 
8 8 
8 8 
8 8 
8 8 
8 8 
8 8 
8 8 
8 8 
8 8 
8 8 
8 8 
8 8 
8 8 
8 8 
8 8 
8 8 
8 8 
8 8 
8 8 
8 8 
8 8 
8 8 
8 8 
8 8 
8 8 
8 8 
8 8 
8 8 
8 8 
8 8 
8 8 
8 8 
8 8 
8 8 
8 8 
8 8 
8 8 
8 8 
8 8 
8 8 
8 8 
8 8 
8 8 
8 8 
8 8 
8 8 
8 8 
8 8 
8 8 
8 8 
8 8 
8 8 
8 8 
8 8 
8 8 
8 8 
8 8 
8 8 
8 8 
8 8 
8 8 
8 8 
8 8 
8 8 
8 8 
8 8 
8 8 
8 8 
8 8 
8 8 
8 8 
8 8 
8 8 
8 8 
8 8 
8 8 
8 8 
8 8 
8 8 
8 8 
8 8 
8 8 
8 8 
8 8 
8 8 
8 8 
8 8 
8 8 
8 8 
8 8 
8 8 
8 8 
8 8 
8 8 
8 8 
8 8 
8 8 
8 8 
8 8 
8 8 
8 8 
8 8 
8 8 
8 8 
8 8 
8 8 
8 8 
8 8 
8 8 
8 8 
8 8 
8 8 
8 8 
8 8 
8 8 
8 8 
8 8 
8 8 
8 8 
8 8 
8 8 
8 8 
8 8 
8 8 
8 8 
8 8 
8 8 
8 8 
8 8 
8 8 
8 8 
8 8 
8 8 
8 8 
8 8 
8 8 
8 8 
8 8 
8 8 
8 8 
8 8 
8 8 
8 8 
8 8 
8 8 
8 8 
8 8 
8 8 
8 8 
8 8 
8 8 
8 8 
8 8 
8 8 
8 8 
8 8 
8 8 
8 8 
8 8 
8 8 
8 8 
8 8 
8 8 
8 8 
8 8 
8 8 
8 8 
8 8 
8 8 
8 8 
8 8 
8 8 
8 8 
8 8 
8 8 
8 8 
8 8 
8 8 
8 8 
8 8 
8 8 
8 8 
8 8 
8 8 
8 8 
8 8 
8 8 
8 8 
8 8 
8 8 
8 8 
8 8 
8 8 
8 8 
8 8 
8 8 
8 8 
8 8 
8 8 
8 8 
8 8 
8 8 
8 8 
8 8 
8 8 
8 8 
8 8 
8 8 
8 8 
8 8 
8 8 
8 8 
8 8 
8 8 
8 8 
8 8 
8 8 
8 8 
8 8 
8 8 
8 8 
8 8 
8 8 
8 8 
8 8 
8 8 
8 8 
8 8 
8 8 
8 8 
8 8 
8 8 
8 8 
8 8 
8 8 
8 8 
8 8 
8 8 
8 8 
8 8 
8 8 
8 8 
8 8 
8 8 
8 8 
8 8 
8 8 
8 8 
8 8 
8 8 
8 8 
8 8 
8 8 
8 8 
8 8 
8 8 
8 8 
8 8 
8 8 
8 8 
8 8 
8 8 
8 8 
8 8 
8 8 
8 8 
8 8 
8 8 
8 8 
8 8 
8 8 
8 8 
8 8 
8 8 
8 8 
8 8 
8 8 
8 8 
8 8 
8 8 
8 8 
8 8 
8 8 
8 8 
8 8 
8 8 
8 8 
8 8 
8 8 
8 8 
8 8 
8 8 
8 8 
8 8 
8 8 
8 8 
8 8 
8 8 
8 8 
8 8 
8 8 
8 8 
8 8 
8 8 
8 8 
8 8 
8 8 
8 8 
8 8 
8 8 
8 8 
8 8 
8 8 
8 8 
8 8 
8 8 
8 8 
8 8 
8 8 
8 8 
8 8 
8 8 
8 8 
8 8 
8 8 
8 8 
8 8 
8 8 
8 8 
8 8 
8 8 
8 8 
8 8 
8 8 
8 8 
8 8 
8 8 
8 8 
8 8 
8 8 
8 8 
8 8 
8 8 
8 8 
8 8 
8 8 
8 8 
8 8 
8 8 
8 8 
8 8 
8 8 
8 8 
8 8 
8 8 
8 8 
8 8 
8 8 
8 8 
8 8 
8 8 
8 8 
8 8 
8 8 
8 8 
8 8 
8 8 
8 8 
8 8 
8 8 
8 8 
8 8 
8 8 
8 8 
8 8 
8 8 
8 8 
8 8 
8 8 
8 8 
8 8 
8 8 
8 8 
8 8 
8 8 
8 8 
8 8 
8 8 
8 8 
8 8 
8 8 
8 8 
8 8 
8 8 
8 8 
8 8 
8 8 
8 8 
8 8 
8 8 
8 8 
8 8 
8 8 
8 8 
8 8 
8 8 
8 8 
8 8 
8 8 
8 8 
8 8 
8 8 
8 8 
8 8 
8 8 
8 8 
8 8 
8 8 
8 8 
8 8 
8 8 
8 8 
8 8 
8 8 
8 8 
8 8 
8 8 
8 8 
8 8 
8 8 
8 8 
8 8 
8 8 
8 8 
8 8 
8 8 
8 8 
8 8 
8 8 
8 8 
8 8 
8 8 
8 8 
8 8 
8 8 
8 8 
8 8 
8 8 
8 8 
8 8 
8 8 
8 8 
8 8 
8 8 
8 8 
8 8 
8 8 
8 8 
8 8 
8 8 
8 8 
8 8 
8 8 
8 8 
8 8 
8 8 
8 8 
8 8 
8 8 
8 8 
8 8 
8 8 
8 8 
8 8 
8 8 
8 8 
8 8 
8 8 
8 8 
8 8 
8 8 
8 8 
8 8 
8 8 
8 8 
8 8 
8 8 
8 8 
8 8 
8 8 
8 8 
8 8 
8 8 
8 8 
8 8 
8 8 
8 8 
8 8 
8 8 
8 8 
8 8 
8 8 
8 8 
8 8 
8 8 
8 8 
8 8 
8 8 
8 8 
8 8 
8 8 
8 8 
8 8 
8 8 
8 8 
8 8 
8 8 
8 8 
8 8 
8 8 
8 8 
8 8 
8 8 
8 8 
8 8 
8 8 
8 8 
8 8 
8 8 
8 8 
8 8 
8 8 
8 8 
8 8 
8 8 
8 8 
8 8 
8 8 
8 8 
8 8 
8 8 
8 8 
8 8 
8 8 
8 8 
8 8 
8 8 
8 8 
8 8 
8 8 
8 8 
8 8 
8 8 
8 8 
8 8 
8 8 
8 8 
8 8 
8 8 
8 8 
8 8 
8 8 
8 8 
8 8 
8 8 
8 8 
8 8 
8 8 
8 8 
8 8 
8 8 
8 8 
8 8 
8 8 
8 8 
8 8 
8 8 
8 8 
8 8 
8 8 
8 8 
8 8 
8 8 
8 8 
8 8 
8 8 
8 8 
8 8 
8 8 
8 8 
8 8 
8 8 
8 8 
8 8 
8 8 
8 8 
8 8 
8 8 
8 8 
8 8 
8 8 
8 8 
8 8 
8 8 
8 8 
8 8 
8 8 
8 8 
8 8 
8 8 
8 8 
8 8 
8 8 
8 8 
8 8 
8 8 
8 8 
8 8 
8 8 
8 8 
8 8 
8 8 
8 8 
8 8 
8 8 
8 8 
8 8 
8 8 
8 8 
8 8 
8 8 
8 8 
8 8 
8 8 
8 8 
8 8 
8 8 
8 8 
8 8 
8 8 
8 8 
8 8 
8 8 
8 8 
8 8 
8 8 
8 8 
8 8 
8 8 
8 8 
8 8 
8 8 
8 8 
8 8 
8 8 
8 8 
8 8 
8 8 
8 8 
8 8 
8 8 
8 8 
8 8 
8 8 
8 8 
8 8 
8 8 
8 8 
8 8 
8 8 
8 8 
8 8 
8 8 
8 8 
8 8 
8 8 
8 8 
8 8 
8 8 
8 8 
8 8 
8 8 
8 8 
8 8 
8 8 
8 8 
8 8 
8 8 
8 8 
8 8 
8 8 
8 8 
8 8 
8 8 
8 8 
8 8 
8 8 
8 8 
8 8 
8 8 
8 8 
8 8 
8 8 
8 8 
8 8 
8 8 
8 8 
8 8 
8 8 
8 8 
8 8 
8 8 
8 8 
8 8 
8 8 
8 8 
8 8 
8 8 
8 8 
8 8 
8 8 
8 8 
8 8 
8 8 
8 8 
8 8 
8 8 
8 8 
8 8 
8 8 
8 8 
8 8 
8 8 
8 8 
8 8 
8 8 
8 8 
8 8 
8 8 
8 8 
8 8 
8 8 
8 8 
8 8 
8 8 
8 8 
8 8 
8 8 
8 8 
8 8 
8 8 
8 8 
8 8 
8 8 
8 8 
8 8 
8 8 
8 8 
8 8 
8 8 
8 8 
8 8 
8 8 
8 8 
8 8 
8 8 
8 8 
8 8 
8 8 
8 8 
8 8 
8 8 
8 8 
8 8 
8 8 
8 8 
8 8 
8 8 
8 8 
8 8 
8 8 
8 8 
8 8 
8 8 
8 8 
8 8 
8 8 
8 8 
8 8 
8 8 
8 8 
8 8 
8 8 
8 8 
8 8 
8 8 
8 8 
8 8 
8 8 
8 8 
8 8 
8 8 
8 8 
8 8 
8 8 
8 8 
8 8 
8 8 
8 8 
8 8 
8 8 
8 8 
8 8 
8 8 
8 8 
8 8 
8 8 
8 8 
8 8 
8 8 
8 8 
8 8 
8 8 
8 8 
8 8 
8 8 
8 8 
8 8 
8 8 
8 8 
8 8 
8 8 
8 8 
8 8 
8 8 
8 8 
8 8 
8 8 
8 8 
8 8 
8 8 
8 8 
8 8 
8 8 
8 8 
8 8 
8 8 
8 8 
8 8 
8 8 
8 8 
8 8 
8 8 
8 8 
8 8 
8 8 
8 8 
8 8 
8 8 
8 8 
8 8 
8 8 
8 8 
8 8 
8 8 
8 8 
8 8 
8 8 
8 8 
8 8 
8 8 
8 8 
8 8 
8 8 
8 8 
8 8 
8 8 
8 8 
8 8 
8 8 
8 8 
8 8 
8 8 
8 8 
8 8 
8 8 
8 8 
8 8 
8 8 
8 8 
8 8 
8 8 
8 8 
8 8 
8 8 
8 8 
8 8 
8 8 
8 8 
8 8 
8 8 
8 8 
8 8 
8 8 
8 8 
8 8 
8 8 
8 8 
8 8 
8 8 
8 8 
8 8 
8 8 
8 8 
8 8 
8 8 
8 8 
8 8 
8 8 
8 8 
8 8 
8 8 
8 8 
8 8 
8 8 
8 8 
8 8 
8 8 
8 8 
8 8 
8 8 
8 8 
8 8 
8 8 
8 8 
8 8 
8 8 
8 8 
8 8 
8 8 
8 8 
8 8 
8 8 
8 8 
8 8 
8 8 
8 8 
8 8 
8 8 
8 8 
8 8 
8 8 
8 8 
8 8 
8 8 
8 8 
8 8 
8 8 
8 8 
8 8 
8 8 
8 8 
8 8 
8 8 
8 8 
8 8 
8 8 
8 8 
8 8 
8 8 
8 8 
8 8 
8 8 
8 8 
8 8 
8 8 
8 8 
8 8 
8 8 
8 8 
8 8 
8 8 
8 8 
8 8 
8 8 
8 8 
8 8 
8 8 
8 8 
8 8 
8 8 
8 8 
8 8 
8 8 
8 8 
8 8 
8 8 
8 8 
8 8 
8 8 
8 8 
8 8 
8 8 
8 8 
8 8 
8 8 
8 8 
8 8 
8 8 
8 8 
8 8 
8 8 
8 8 
8 8 
8 8 
8 8 
8 8 
8 8 
8 8 
8 8 
8 8 
8 8 
8 8 
8 8 
8 8 
8 8 
8 8 
8 8 
8 8 
8 8 
8 8 
8 8 
8 8 
8 8 
8 8 
8 8 
8 8 
8 8 
8 8 
8 8 
8 8 
8 8 
8 8 
8 8 
8 8 
8 8 
8 8 
8 8 
8 8 
8 8 
8 8 
8 8 
8 8 
8 8 
8 8 
8 8 
8 8 
8 8 
8 8 
8 8 
8 8 
8 8 
8 8 
8 8 
8 8 
8 8 
8 8 
8 8 
8 8 
8 8 
8 8 
8 8 
8 8 
8 8 
8 8 
8 8 
8 8 
8 8 
8 8 
8 8 
8 8 
8 8 
8 8 
8 8 
8 8 
8 8 
8 8 
8 8 
8 8 
8 8 
8 8 
8 8 
8 8 
8 8 
8 8 
8 8 
8 8 
8 8 
8 8 
8 8 
8 8 
8 8 
8 8 
8 8 
8 8 
8 8 
8 8 
8 8 
8 8 
8 8 
8 8 
8 8 
8 8 
8 8 
8 8 
8 8 
8 8 
8 8 
8 8 
8 8 
8 8 
8 8 
8 8 
8 8 
8 8 
8 8 
8 8 
8 8 
8 8 
8 8 
8 8 
8 8 
8 8 
8 8 
8 8 
8 8 
8 8 
8 8 
8 8 
8 8 
8 8 
8 8 
8 8 
8 8 
8 8 
8 8 
8 8 
8 8 
8 8 
8 8 
8 8 
8 8 
8 8 
8 8 
8 8 
8 8 
8 8 
8 8 
8 8 
8 8 
8 8 
8 8 
8 8 
8 8 
8 8 
8 8 
8 8 
8 8 
8 8 
8 8 
8 8 
8 8 
8 8 
8 8 
8 8 
8 8 
8 8 
8 8 
8 8 
8 8 
8 8 
8 8 
8 8 
8 8 
8 8 
8 8 
8 8 
8 8 
8 8 
8 8 
8 8 
8 8 
8 8 
8 8 
8 8 
8 8 
8 8 
8 8 
8 8 
8 8 
8 8 
8 8 
8 8 
8 8 
8 8 
8 8 
8 8 
8 8 
8 8 
8 8 
8 8 
8 8 
8 8 
8 8 
8 8 
8 8 
8 8 
8 8 
8 8 
8 8 
8 8 
8 8 
8 8 
8 8 
8 8 
8 8 
8 8 
8 8 
8 8 
8 8 
8 8 
8 8 
8 8 
8 8 
8 8 
8 8 
8 8 
8 8 
8 8 
8 8 
8 8 
8 8 
8 8 
8 8 
8 8 
8 8 
8 8 
8 8 
8 8 
8 8 
8 8 
8 8 
8 8 
8 8 
8 8 
8 8 
8 8 
8 8 
8 8 
8 8 
8 8 
8 8 
8 8 
8 8 
8 8 
8 8 
8 8 
8 8 
8 8 
8 8 
8 8 
8 8 
8 8 
8 8 
8 8 
8 8 
8 8 
8 8 
8 8 
8 8 
8 8 
8 8 
8 8 
8 8 
8 8 
8 8 
8 8 
8 8 
8 8 
8 8 
8 8 
8 8 
8 8 
8 8 
8 8 
8 8 
8 8 
8 8 
8 8 
8 8 
8 8 
8 8 
8 8 
8 8 
8 8 
8 8 
8 8 
8 8 
8 8 
8 8 
8 8 
8 8 
8 8 
8 8 
8 8 
8 8 
8 8 
8 8 
8 8 
8 8 
8 8 
8 8 
8 8 
8 8 
8 8 
8 8 
8 8 
8 8 
8 8 
8 8 
8 8 
8 8 
8 8 
8 8 
8 8 
8 8 
8 8 
8 8 
8 8 
8 8 
8 8 
8 8 
8 8 
8 8 
8 8 
8 8 
8 8 
8 8 
8 8 
8 8 
8 8 
8 8 
8 8 
8 8 
8 8 
8 8 
8 8 
8 8 
8 8 
8 8 
8 8 
8 8 
8 8 
8 8 
8 8 
8 8 
8 8 
8 8 
8 8 
8 8 
8 8 
8 8 
8 8 
8 8 
8 8 
8 8 
8 8 
8 8 
8 8 
8 8 
8 8 
8 8 
8 8 
8 8 
8 8 
8 8 
8 8 
8 8 
8 8 
8 8 
8 8 
8 8 
8 8 
8 8 
8 8 
8 8 
8 8 
8 8 
8 8 
8 8 
8 8 
8 8 
8 8 
8 8 
8 8 
8 8 
8 8 
8 8 
8 8 
8 8 
8 8 
8 8 
8 8 
8 8 
8 8 
8 8 
8 8 
8 8 
8 8 
8 8 
8 8 
8 8 
8 8 
8 8 
8 8 
8 8 
8 8 
8 8 
8 8 
8 8 
8 8 
8 8 
8 8 
8 8 
8 8 
8 8 
8 8 
8 8 
8 8 
8 8 
8 8 
8 8 
8 8 
8 8 
8 8 
8 8 
8 8 
8 8 
8 8 
8 8 
8 8 
8 8 
8 8 
8 8 
8 8 
8 8 
8 8 
8 8 
8 8 
8 8 
8 8 
8 8 
8 8 
8 8 
8 8 
8 8 
8 8 
8 8 
8 8 
8 8 
8 8 
8 8 
8 8 
8 8 
8 8 
8 8 
8 8 
8 8 
8 8 
8 8 
8 8 
8 8 
8 8 
8 8 
8 8 
8 8 
8 8 
8 8 
8 8 
8 8 
8 8 
8 8 
8 8 
8 8 
8 8 
8 8 
8 8 
8 8 
8 8 
8 8 
8 8 
8 8 
8 8 
8 8 
8 8 
8 8 
8 8 
8 8 
8 8 
8 8 
8 8 
8 8 
8 8 
8 8 
8 8 
8 8 
8 8 
8 8 
8 8 
8 8 
8 8 
8 8 
8 8 
8 8 
8 8 
8 8 
8 8 
8 8 
8 8 
8 8 
8 8 
8 8 
8 8 
8 8 
8 8 
8 8 
8 8 
8 8 
8 8 
8 8 
8 8 
8 8 
8 8 
8 8 
8 8 
8 8 
8 8 
8 8 
8 8 
8 8 
8 8 
8 8 
8 8 
8 8 
8 8 
8 8 
8 8 
8 8 
8 8 
8 8 
8 8 
8 8 
8 8 
8 8 
8 8 
8 8 
8 8 
8 8 
8 8 
8 8 
8 8 
8 8 
8 8 
8 8 
8 8 
8 8 
8 8 
8 8 
8 8 
8 8 
8 8 
8 8 
8 8 
8 8 
8 8 
8 8 
8 8 
8 8 
8 8 
8 8 
8 8 
8 8 
8 8 
8 8 
8 8 
8 8 
8 8 
8 8 
8 8 
8 8 
8 8 
8 8 
8 8 
8 8 
8 8 
8 8 
8 8 
8 8 
8 8 
8 8 
8 8 
8 8 
8 8 
8 8 
8 8 
8 8 
8 8 
8 8 
8 8 
8 8 
8 8 
8 8 
8 8 
8 8 
8 8 
8 8 
8 8 
8 8 
8 8 
8 8 
8 8 
8 8 
8 8 
8 8 
8 8 
8 8 
8 8 
8 8 
8 8 
8 8 
8 8 
8 8 
8 8 
8 8 
8 8 
8 8 
8 8 
8 8 
8 8 
8 8 
8 8 
8 8 
8 8 
8 8 
8 8 
8 8 
8 8 
8 8 
8 8 
8 8 
8 8 
8 8 
8 8 
8 8 
8 8 
8 8 
8 8 
8 8 
8 8 
8 8 
8 8 
8 8 
8 8 
8 8 
8 8 
8 8 
8 8 
8 8 
8 8 
8 8 
8 8 
8 8 
8 8 
8 8 
8 8 
8 8 
8 8 
8 8 
8 8 
8 8 
8 8 
8 8 
8 8 
8 8 
8 8 
8 8 
8 8 
8 8 
8 8 
8 8 
8 8 
8 8 
8 8 
8 8 
8 8 
8 8 
8 8 
8 8 
8 8 
8 8 
8 8 
8 8 
8 8 
8 8 
8 8 
8 8 
8 8 
8 8 
8 8 
8 8 
8 8 
8 8 
8 8 
8 8 
8 8 
8 8 
8 8 
8 8 
8 8 
8 8 
8 8 
8 8 
8 8 
8 8 
8 8 
8 8 
8 8 
8 8 
8 8 
8 8 
8 8 
8 8 
8 8 
8 8 
8 8 
8 8 
8 8 
8 8 
8 8 
8 8 
8 8 
8 8 
8 8 
8 8 
8 8 
8 8 
8 8 
8 8 
8 8 
8 8 
8 8 
8 8 
8 8 
8 8 
8 8 
8 8 
8 8 
8 8 
8 8 
8 8 
8 8 
8 8 
8 8 
8 8 
8 8 
8 8 
8 8 
8 8 
8 8 
8 8 
8 8 
8 8 
8 8 
8 8 
8 8 
8 8 
8 8 
8 8 
8 8 
8 8 
8 8 
8 8 
8 8 
8 8 
8 8 
8 8 
8 8 
8 8 
8 8 
8 8 
8 8 
8 8 
8 8 
8 8 
8 8 
8 8 
8 8 
8 8 
8 8 
8 8 
8 8 
8 8 
8 8 
8 8 
8 8 
8 8 
8 8 
8 8 
8 8 
8 8 
8 8 
8 8 
8 8 
8 8 
8 8 
8 8 
8 8 
8 8 
8 8 
8 8 
8 8 
8 8 
8 8 
8 8 
8 8 
8 8 
8 8 
8 8 
8 8 
8 8 
8 8 
8 8 
8 8 
8 8 
8 8 
8 8 
8 8 
8 8 
8 8 
8 8 
8 8 
8 8 
8 8 
8 8 
8 8 
8 8 
8 8 
8 8 
8 8 
8 8 
8 8 
8 8 
8 8 
8 8 
8 8 
8 8 
8 8 
8 8 
8 8 
8 8 
8 8 
8 8 
8 8 
8 8 
8 8 
8 8 
8 8 
8 8 
8 8 
8 8 
8 8 
8 8 
8 8 
8 8 
8 8 
8 8 
8 8 
8 8 
8 8 
8 8 
8 8 
8 8 
8 8 
8 8 
8 8 
8 8 
8 8 
8 8 
8 8 
8 8 
8 8 
8 8 
8 8 
8 8 
8 8 
8 8 
8 8 
8 8 
8 8 
8 8 
8 8 
8 8 
8 8 
8 8 
8 8 
8 8 
8 8 
8 8 
8 8 
8 8 
8 8 
8 8 
8 8 
8 8 
8 8 
8 8 
8 8 
8 8 
8 8 
8 8 
8 8 
8 8 
8 8 
8 8 
8 8 
8 8 
8 8 
8 8 
8 8 
8 8 
8 8 
8 8 
8 8 
8 8 
8 8 
8 8 
8 8 
8 8 
8 8 
8 8 
8 8 
8 8 
8 8 
8 8 
8 8 
8 8 
8 8 
8 8 
8 8 
8 8 
8 8 
8 8 
8 8 
8 8 
8 8 
8 8 
8 8 
8 8 
8 8 
8 8 
8 8 
8 8 
8 8 
8 8 
8 8 
8 8 
8 8 
8 8 
8 8 
8 8 
8 8 
8 8 
8 8 
8 8 
8 8 
8 8 
8 8 
8 8 
8 8 
8 8 
8 8 
8 8 
8 8 
8 8 
8 8 
8 8 
8 8 
8 8 
8 8 
8 8 
8 8 
8 8 
8 8 
8 8 
8 8 
8 8 
8 8 
8 8 
8 8 
8 8 
8 8 
8 8 
8 8 
8 8 
8 8 
8 8 
8 8 
8 8 
8 8 
8 8 
8 8 
8 8 
8 8 
8 8 
8 8 
8 8 
8 8 
8 8 
8 8 
8 8 
8 8 
8 8 
8 8 
8 8 
8 8 
8 8 
8 8 
8 8 
8 8 
8 8 
8 8 
8 8 
8 8 
8 8 
8 8 
8 8 
8 8 
8 8 
8 8 
8 8 
8 8 
8 8 
8 8 
8 8 
8 8 
8 8 
8 8 
8 8 
8 8 
8 8 
8 8 
8 8 
8 8 
8 8 
8 8 
8 8 
8 8 
8 8 
8 8 
8 8 
8 8 
8 8 
8 8 
8 8 
8 8 
8 8 
8 8 
8 8 
8 8 
8 8 
8 8 
8 8 
8 8 
8 8 
8 8 
8 8 
8 8 
8 8 
8 8 
8 8 
8 8 
8 8 
8 8 
8 8 
8 8 
8 8 
8 8 
8 8 
8 8 
8 8 
8 8 
8 8 
8 8 
8 8 
8 8 
8 8 
8 8 
8 8 
8 8 
8 8 
8 8 
8 8 
8 8 
8 8 
8 8 
8 8 
8 8 
8 8 
8 8 
8 8 
8 8 
8 8 
8 8 
8 8 
8 8 
8 8 
8 8 
8 8 
8 8 
8 8 
8 8 
8 8 
8 8 
8 8 
8 8 
8 8 
8 8 
8 8 
8 8 
8 8 
8 8 
8 8 
8 8 
8 8 
8 8 
8 8 
8 8 
8 8 
8 8 
8 8 
8 8 
8 8 
8 8 
8 8 
8 8 
8 8 
8 8 
8 8 
8 8 
8 8 
8 8 
8 8 
8 8 
8 8 
8 8 
8 8 
8 8 
8 8 
8 8 
8 8 
8 8 
8 8 
8 8 
8 8 
8 8 
8 8 
8 8 
8 8 
8 8 
8 8 
8 8 
8 8 
8 8 
8 8 
8 8 
8 8 
8 8 
8 8 
8 8 
8 8 
8 8 
8 8 
8 8 
8 8 
8 8 
8 8 
8 8 
8 8 
8 8 
8 8 
8 8 
8 8 
8 8 
8 8 
8 8 
8 8 
8 8 
8 8 
8 8 
8 8 
8 8 
8 8 
8 8 
8 8 
8 8 
8 8 
8 8 
8 8 
8 8 
8 8 
8 8 
8 8 
8 8 
8 8 
8 8 
8 8 
8 8 
8 8 
8 8 
8 8 
8 8 
8 8 
8 8 
8 8 
8 8 
8 8 
8 8 
8 8 
8 8 
8 8 
8 8 
8 8 
8 8 
8 8 
8 8 
8 8 
8 8 
8 8 
8 8 
8 8 
8 8 
8 8 
8 8 
8 8 
8 8 
8 8 
8 8 
8 8 
8 8 
8 8 
8 8 
8 8 
8 8 
8 8 
8 8 
8 8 
8 8 
8 8 
8 8 
8 8 
8 8 
8 8 
8 8 
8 8 
8 8 
8 8 
8 8 
8 8 
8 8 
8 8 
8 8 
8 8 
8 8 
8 8 
8 8 
8 8 
8 8 
8 8 
8 8 
8 8 
8 8 
8 8 
8 8 
8 8 
8 8 
8 8 
8 8 
8 8 
8 8 
8 8 
8 8 
8 8 
8 8 
8 8 
8 8 
8 8 
8 8 
8 8 
8 8 
8 8 
8 8 
8 8 
8 8 
8 8 
8 8 
8 8 
8 8 
8 8 
8 8 
8 8 
8 8 
8 8 
8 8 
8 8 
8 8 
8 8 
8 8 
8 8 
8 8 
8 8 
8 8 
8 8 
8 8 
8 8 
8 8 
8 8 
8 8 
8 8 
8 8 
8 8 
8 8 
8 8 
8 8 
8 8 
8 8 
8 8 
8 8 
8 8 
8 8 
8 8 
8 8 
8 8 
8 8 
8 8 
8 8 
8 8 
8 8 
8 8 
8 8 
8 8 
8 8 
8 8 
8 8 
8 8 
8 8 
8 8 
8 8 
8 8 
8 8 
8 8 
8 8 
8 8 
8 8 
8 8 
8 8 
8 8 
8 8 
8 8 
8 8 
8 8 
8 8 
8 8 
8 8 
8 8 
8 8 
8 8 
8 8 
8 8 
8 8 
8 8 
8 8 
8 8 
8 8 
8 8 
8 8 
8 8 
8 8 
8 8 
8 8 
8 8 
8 8 
8 8 
8 8 
8 8 
8 8 
8 8 
8 8 
8 8 
8 8 
8 8 
8 8 
8 8 
8 8 
8 8 
8 8 
8 8 
8 8 
8 8 
8 8 
8 8 
8 8 
8 8 
8 8 
8 8 
8 8 
8 8 
8 8 
8 8 
8 8 
8 8 
8 8 
8 8 
8 8 
8 8 
8 8 
8 8 
8 8 
8 8 
8 8 
8 8 
8 8 
8 8 
8 8 
8 8 
8 8 
8 8 
8 8 
8 8 
8 8 
8 8 
8 8 
8 8 
8 8 
8 8 
8 8 
8 8 
8 8 
8 8 
8 8 
8 8 
8 8 
8 8 
8 8 
8 8 
8 8 
8 8 
8 8 
8 8 
8 8 
8 8 
8 8 
8 8 
8 8 
8 8 
8 8 
8 8 
8 8 
8 8 
8 8 
8 8 
8 8 
8 8 
8 8 
8 8 
8 8 
8 8 
8 8 
8 8 
8 8 
8 8 
8 8 
8 8 
8 8 
8 8 
8 8 
8 8 
8 8 
8 8 
8 8 
8 8 
8 8 
8 8 
8 8 
8 8 
8 8 
8 8 
8 8 
8 8 
8 8 
8 8 
8 8 
8 8 
8 8 
8 8 
8 8 
8 8 
8 8 
8 8 
8 8 
8 8 
8 8 
8 8 
8 8 
8 8 
8 8 
8 8 
8 8 
8 8 
8 8 
8 8 
8 8 
8 8 
8 8 
8 8 
8 8 
8 8 
8 8 
8 8 
8 8 
8 8 
8 8 
8 8 
8 8 
8 8 
8 8 
8 8 
8 8 
8 8 
8 8 
8 8 
8 8 
8 8 
8 8 
8 8 
8 8 
8 8 
8 8 
8 8 
8 8 
8 8 
8 8 
8 8 
8 8 
8 8 
8 8 
8 8 
8 8 
8 8 
8 8 
8 8 
8 8 
8 8 
8 8 
8 8 
8 8 
8 8 
8 8 
8 8 
8 8 
8 8 
8 8 
8 8 
8 8 
8 8 
8 8 
8 8 
8 8 
8 8 
8 8 
8 8 
8 8 
8 8 
8 8 
8 8 
8 8 
8 8 
8 8 
8 8 
8 8 
8 8 
8 8 
8 8 
8 8 
8 8 
8 8 
8 8 
8 8 
8 8 
8 8 
8 8 
8 8 
8 8 
8 8 
8 8 
8 8 
8 8 
8 8 
8 8 
8 8 
8 8 
8 8 
8 8 
8 8 
8 8 
8 8 
8 8 
8 8 
8 8 
8 8 
8 8 
8 8 
8 8 
8 8 
8 8 
8 8 
8 8 
8 8 
8 8 
8 8 
8 8 
8 8 
8 8 
8 8 
8 8 
8 8 
8 8 
8 8 
8 8 
8 8 
8 8 
8 8 
8 8 
8 8 
8 8 
8 8 
8 8 
8 8 
8 8 
8 8 
8 8 
8 8 
8 8 
8 8 
8 8 
8 8 
8 8 
8 8 
8 8 
8 8 
8 8 
8 8 
8 8 
8 8 
8 8 
8 8 
8 8 
8 8 
8 8 
8 8 
8 8 
8 8 
8 8 
8 8 
8 8 
8 8 
8 8 
8 8 
8 8 
8 8 
8 8 
8 8 
8 8 
8 8 
8 8 
8 8 
8 8 
8 8 
8 8 
8 8 
8 8 
8 8 
8 8 
8 8 
8 8 
8 8 
8 8 
8 8 
8 8 
8 8 
8 8 
8 8 
8 8 
8 8 
8 8 
8 8 
8 8 
8 8 
8 8 
8 8 
8 8 
8 8 
8 8 
8 8 
8 8 
8 8 
8 8 
8 8 
8 8 
8 8 
8 8 
8 8 
8 8 
8 8 
8 8 
8 8 
8 8 
8 8 
8 8 
8 8 
8 8 
8 8 
8 8 
8 8 
8 8 
8 8 
8 8 
8 8 
8 8 
8 8 
8 8 
8 8 
8 8 
8 8 
8 8 
8 8 
8 8 
8 8 
8 8 
8 8 
8 8 
8 8 
8 8 
8 8 
8 8 
8 8 
8 8 
8 8 
8 8 
8 8 
8 8 
8 8 
8 8 
8 8 
8 8 
8 8 
8 8 
8 8 
8 8 
8 8 
8 8 
8 8 
8 8 
8 8 
8 8 
8 8 
8 8 
8 8 
8 8 
8 8 
8 8 
8 8 
8 8 
8 8 
8 8 
8 8 
8 8 
8 8 
8 8 
8 8 
8 8 
8 8 
8 8 
8 8 
8 8 
8 8 
8 8 
8 8 
8 8 
8 8 
8 8 
8 8 
8 8 
8 8 
8 8 
8 8 
8 8 
8 8 
8 8 
8 8 
8 8 
8 8 
8 8 
8 8 
8 8 
8 8 
8 8 
8 8 
8 8 
8 8 
8 8 
8 8 
8 8 
8 8 
8 8 
8 8 
8 8 
8 8 
8 8 
8 8 
8 8 
8 8 
8 8 
8 8 
8 8 
8 8 
8 8 
8 8 
8 8 
8 8 
8 8 
8 8 
8 8 
8 8 
8 8 
8 8 
8 8 
8 8 
8 8 
8 8 
8 8 
8 8 
8 8 
8 8 
8 8 
8 8 
8 8 
8 8 
8 8 
8 8 
8 8 
8 8 
8 8 
8 8 
8 8 
8 8 
8 8 
8 8 
8 8 
8 8 
8 8 
8 8 
8 8 
8 8 
8 8 
8 8 
8 8 
8 8 
8 8 
8 8 
8 8 
8 8 
8 8 
8 8 
8 8 
8 8 
8 8 
8 8 
8 8 
8 8 
8 8 
8 8 
8 8 
8 8 
8 8 
8 8 
8 8 
8 8 
8 8 
8 8 
8 8 
8 8 
8 8 
8 8 
8 8 
8 8 
8 8 
8 8 
8 8 
8 8 
8 8 
8 8 
8 8 
8 8 
8 8 
8 8 
8 8 
8 8 
8 8 
8 8 
8 8 
8 8 
8 8 
8 8 
8 8 
8 8 
8 8 
8 8 
8 8 
8 8 
8 8 
8 8 
8 8 
8 8 
8 8 
8 8 
8 8 
8 8 
8 8 
8 8 
8 8 
8 8 
8 8 
8 8 
8 8 
8 8 
8 8 
8 8 
8 8 
8 8 
8 8 
8 8 
8 8 
8 8 
8 8 
8 8 
8 8 
8 8 
8 8 
8 8 
8 8 
8 8 
8 8 
8 8 
8 8 
8 8 
8 8 
8 8 
8 8 
8 8 
8 8 
8 8 
8 8 
8 8 
8 8 
8 8 
8 8 
8 8 
8 8 
8 8 
8 8 
8 8 
8 8 
8 8 
8 8 
8 8 
8 8 
8 8 
8 8 
8 8 
8 8 
8 8 
8 8 
8 8 
8 8 
8 8 
8 8 
8 8 
8 8 
8 8 
8 8 
8 8 
8 8 
8 8 
8 8 
8 8 
8 8 
8 8 
8 8 
8 8 
8 8 
8 8 
8 8 
8 8 
8 8 
8 8 
8 8 
8 8 
8 8 
8 8 
8 8 
8 8 
8 8 
8 8 
8 8 
8 8 
8 8 
8 8 
8 8 
8 8 
8 8 
8 8 
8 8 
8 8 
8 8 
8 8 
8 8 
8 8 
8 8 
8 8 
8 8 
8 8 
8 8 
8 8 
8 8 
8 8 
8 8 
8 8 
8 8 
8 8 
8 8 
8 8 
8 8 
8 8 
8 8 
8 8 
8 8 
8 8 
8 8 
8 8 
8 8 
8 8 
8 8 
8 8 
8 8 
8 8 
8 8 
8 8 
8 8 
8 8 
8 8 
8 8 
8 8 
8 8 
8 8 
8 8 
8 8 
8 8 
8 8 
8 8 
8 8 
8 8 
8 8 
8 8 
8 8 
8 8 
8 8 
8 8 
8 8 
8 8 
8 8 
8 8 
8 8 
8 8 
8 8 
8 8 
8 8 
8 8 
8 8 
8 8 
8 8 
8 8 
8 8 
8 8 
8 8 
8 8 
8 8 
8 8 
8 8 
8 8 
8 8 
8 8 
8 8 
8 8 
8 8 
8 8 
8 8 
8 8 
8 8 
8 8 
8 8 
8 8 
8 8 
8 8 
8 8 
8 8 
8 8 
8 8 
8 8 
8 8 
8 8 
8 8 
8 8 
8 8 
8 8 
8 8 
8 8 
8 8 
8 8 
8 8 
8 8 
8 8 
8 8 
8 8 
8 8 
8 8 
8 8 
8 8 
8 8 
8 8 
8 8 
8 8 
8 8 
8 8 
8 8 
8 8 
8 8 
8 8 
8 8 
8 8 
8 8 
8 8 
8 8 
8 8 
8 8 
8 8 
8 8 
8 8 
8 8 
8 8 
8 8 
8 8 
8 8 
8 8 
8 8 
8 8 
8 8 
8 8 
8 8 
8 8 
8 8 
8 8 
8 8 
8 8 
8 8 
8 8 
8 8 
8 8 
8 8 
8 8 
8 8 
8 8 
8 8 
8 8 
8 8 
8 8 
8 8 
8 8 
8 8 
8 8 
8 8 
8 8 
8 8 
8 8 
8 8 
8 8 
8 8 
8 8 
8 8 
8 8 
8 8 
8 8 
8 8 
8 8 
8 8 
8 8 
8 8 
8 8 
8 8 
8 8 
8 8 
8 8 
8 8 
8 8 
8 8 
8 8 
8 8 
8 8 
8 8 
8 8 
8 8 
8 8 
8 8 
8 8 
8 8 
8 8 
8 8 
8 8 
8 8 
8 8 
8 8 
8 8 
8 8 
8 8 
8 8 
8 8 
8 8 
8 8 
8 8 
8 8 
8 8 
8 8 
8 8 
8 8 
8 8 
8 8 
8 8 
8 8 
8 8 
8 8 
8 8 
8 8 
8 8 
8 8 
8 8 
8 8 
8 8 
8 8 
8 8 
8 8 
8 8 
8 8 
8 8 
8 8 
8 8 
8 8 
8 8 
8 8 
8 8 
8 8 
8 8 
8 8 
8 8 
8 8 
8 8 
8 8 
8 8 
8 8 
8 8 
8 8 
8 8 
8 8 
8 8 
8 8 
8 8 
8 8 
8 8 
8 8 
8 8 
8 8 
8 8 
8 8 
8 8 
8 8 
8 8 
8 8 
8 8 
8 8 
8 8 
8 8 
8 8 
8 8 
8 8 
8 8 
8 8 
8 8 
8 8 
8 8 
8 8 
8 8 
8 8 
8 8 
8 8 
8 8 
8 8 
8 8 
8 8 
8 8 
8 8 
8 8 
8 8 
8 8 
8 8 
8 8 
8 8 
8 8 
8 8 
8 8 
8 8 
8 8 
8 8 
8 8 
8 8 
8 8 
8 8 
8 8 
8 8 
8 8 
8 8 
8 8 
8 8 
8 8 
8 8 
8 8 
8 8 
8 8 
8 8 
8 8 
8 8 
8 8 
8 8 
8 8 
8 8 
8 8 
8 8 
8 8 
8 8 
8 8 
8 8 
8 8 
8 8 
8 8 
8 8 
8 8 
8 8 
8 8 
8 8 
8 8 
8 8 
8 8 
8 8 
8 8 
8 8 
8 8 
8 8 
8 8 
8 8 
8 8 
8 8 
8 8 
8 8 
8 8 
8 8 
8 8 
8 8 
8 8 
8 8 
8 8 
8 8 
8 8 
8 8 
8 8 
8 8 
8 8 
8 8 
8 8 
8 8 
8 8 
8 8 
8 8 
8 8 
8 8 
8 8 
8 8 
8 8 
8 8 
8 8 
8 8 
8 8 
8 8 
8 8 
8 8 
8 8 
8 8 
8 8 
8 8 
8 8 
8 8 
8 8 
8 8 
8 8 
8 8 
8 8 
8 8 
8 8 
8 8 
8 8 
8 8 
8 8 
8 8 
8 8 
8 8 
8 8 
8 8 
8 8 
[...]
8 8 
8 8 
8 8 
8 8 
8 8 
8 8 
8 8 
8 8 
8 8 
8 8 
8 8 
8 8 
8 8 
8 8 
8 8 
8 8 
8 8 
8 8 
8 8 
8 8 
8 8 
8 8 
8 8 
8 8 
8 8 
8 8 
8 8 
8 8 
8 8 
8 8 
8 8 
8 8 
8 8 
8 8 
8 8 
8 8 
8 8 
8 8 
8 8 
8 8 
8 8 
8 8 
8 8 
8 8 
8 8 
8 8 
8 8 
8 8 
8 8 
8 8 
8 8 
8 8 
8 8 
8 8 
8 8 
8 8 
8 8 
8 8 
8 8 
8 8 
8 8 
8 8 
8 8 
8 8 
8 8 
8 8 
8 8 
8 8 
8 8 
8 8 
8 8 
8 8 
8 8 
8 8 
8 8 
8 8 
8 8 
8 8 
8 8 
8 8 
8 8 
8 8 
8 8 
8 8 
8 8 
8 8 
8 8 
8 8 
8 8 
8 8 
8 8 
8 8 
8 8 
8 8 
8 8 
8 8 
8 8 
8 8 
8 8 
8 8 
8 8 
8 8 
8 8 
8 8 
8 8 
8 8 
8 8 
8 8 
8 8 
8 8 
8 8 
8 8 
8 8 
8 8 
8 8 
8 8 
8 8 
8 8 
8 8 
8 8 
8 8 
8 8 
8 8 
8 8 
8 8 
8 8 
8 8 
8 8 
8 8 
8 8 
8 8 
8 8 
8 8 
8 8 
8 8 
8 8 
8 8 
8 8 
8 8 
8 8 
8 8 
8 8 
8 8 
8 8 
8 8 
8 8 
8 8 
8 8 
8 8 
8 8 
8 8 
8 8 
8 8 
8 8 
8 8 
8 8 
8 8 
8 8 
8 8 
8 8 
8 8 
8 8 
8 8 
8 8 
8 8 
8 8 
8 8 
8 8 
8 8 
8 8 
8 8 
8 8 
8 8 
8 8 
8 8 
8 8 
8 8 
8 8 
8 8 
8 8 
8 8 
8 8 
8 8 
8 8 
8 8 
8 8 
8 8 
8 8 
8 8 
8 8 
8 8 
8 8 
8 8 
8 8 
8 8 
8 8 
8 8 
8 8 
8 8 
8 8 
8 8 
8 8 
8 8 
8 8 
8 8 
8 8 
8 8 
8 8 
8 8 
8 8 
8 8 
8 8 
8 8 
8 8 
8 8 
8 8 
8 8 
8 8 
8 8 
8 8 
8 8 
8 8 
8 8 
8 8 
8 8 
8 8 
8 8 
8 8 
8 8 
8 8 
8 8 
8 8 
8 8 
8 8 
8 8 
8 8 
8 8 
8 8 
8 8 
8 8 
8 8 
8 8 
8 8 
8 8 
8 8 
8 8 
8 8 
8 8 
8 8 
8 8 
8 8 
8 8 
8 8 
8 8 
8 8 
8 8 
8 8 
8 8 
8 8 
8 8 
8 8 
8 8 
8 8 
8 8 
8 8 
8 8 
8 8 
8 8 
8 8 
8 8 
8 8 
8 8 
8 8 
8 8 
8 8 
8 8 
8 8 
8 8 
8 8 
8 8 
8 8 
8 8 
8 8 
8 8 
8 8 
8 8 
8 8 
8 8 
8 8 
8 8 
8 8 
8 8 
8 8 
8 8 
8 8 
8 8 
8 8 
8 8 
8 8 
8 8 
8 8 
8 8 
8 8 
8 8 
8 8 
8 8 
8 8 
8 8 
8 8 
8 8 
8 8 
8 8 
8 8 
8 8 
8 8 
8 8 
8 8 
8 8 
8 8 
8 8 
8 8 
8 8 
8 8 
8 8 
8 8 
8 8 
8 8 
8 8 
8 8 
8 8 
8 8 
8 8 
8 8 
8 8 
8 8 
8 8 
8 8 
8 8 
8 8 
8 8 
8 8 
8 8 
8 8 
8 8 
8 8 
8 8 
8 8 
8 8 
8 8 
8 8 
8 8 
8 8 
8 8 
8 8 
8 8 
8 8 
8 8 
8 8 
8 8 
8 8 
8 8 
8 8 
8 8 
8 8 
8 8 
8 8 
8 8 
8 8 
8 8 
8 8 
8 8 
8 8 
8 8 
8 8 
8 8 
8 8 
8 8 
8 8 
8 8 
8 8 
8 8 
8 8 
8 8 
8 8 
8 8 
8 8 
8 8 
8 8 
8 8 
8 8 
8 8 
8 8 
8 8 
8 8 
8 8 
8 8 
8 8 
8 8 
8 8 
8 8 
8 8 
8 8 
8 8 
8 8 
8 8 
8 8 
8 8 
8 8 
8 8 
8 8 
8 8 
8 8 
8 8 
8 8 
8 8 
8 8 
8 8 
8 8 
8 8 
8 8 
8 8 
8 8 
8 8 
8 8 
8 8 
8 8 
8 8 
8 8 
8 8 
8 8 
8 8 
8 8 
8 8 
8 8 
8 8 
8 8 
8 8 
8 8 
8 8 
8 8 
8 8 
8 8 
8 8 
8 8 
8 8 
8 8 
8 8 
8 8 
8 8 
8 8 
8 8 
8 8 
8 8 
8 8 
8 8 
8 8 
8 8 
8 8 
8 8 
8 8 
8 8 
8 8 
8 8 
8 8 
8 8 
8 8 
8 8 
8 8 
8 8 
8 8 
8 8 
8 8 
8 8 
8 8 
8 8 
8 8 
8 8 
8 8 
8 8 
8 8 
8 8 
8 8 
8 8 
8 8 
8 8 
8 8 
8 8 
8 8 
8 8 
8 8 
8 8 
8 8 
8 8 
8 8 
8 8 
8 8 
8 8 
8 8 
8 8 
8 8 
8 8 
8 8 
8 8 
8 8 
8 8 
8 8 
8 8 
8 8 
8 8 
8 8 
8 8 
8 8 
8 8 
8 8 
8 8 
8 8 
8 8 
8 8 
8 8 
8 8 
8 8 
8 8 
8 8 
8 8 
8 8 
8 8 
8 8 
8 8 
8 8 
8 8 
8 8 
8 8 
8 8 
8 8 
8 8 
8 8 
8 8 
8 8 
8 8 
8 8 
8 8 
8 8 
8 8 
8 8 
8 8 
8 8 
8 8 
8 8 
8 8 
8 8 
8 8 
8 8 
8 8 
8 8 
8 8 
8 8 
8 8 
8 8 
8 8 
8 8 
8 8 
8 8 
8 8 
8 8 
8 8 
8 8 
8 8 
8 8 
8 8 
8 8 
8 8 
8 8 
8 8 
8 8 
8 8 
8 8 
8 8 
8 8 
8 8 
8 8 
8 8 
8 8 
8 8 
8 8 
8 8 
8 8 
8 8 
8 8 
8 8 
8 8 
8 8 
8 8 
8 8 
8 8 
8 8 
8 8 
8 8 
8 8 
8 8 
8 8 
8 8 
8 8 
8 8 
8 8 
8 8 
8 8 
8 8 
8 8 
8 8 
8 8 
8 8 
8 8 
8 8 
8 8 
8 8 
8 8 
8 8 
8 8 
8 8 
8 8 
8 8 
8 8 
8 8 
8 8 
8 8 
8 8 
8 8 
8 8 
8 8 
8 8 
8 8 
8 8 
8 8 
8 8 
8 8 
8 8 
8 8 
8 8 
8 8 
8 8 
8 8 
8 8 
8 8 
8 8 
8 8 
8 8 
8 8 
8 8 
8 8 
8 8 
8 8 
8 8 
8 8 
8 8 
8 8 
8 8 
8 8 
8 8 
8 8 
8 8 
8 8 
8 8 
8 8 
8 8 
8 8 
8 8 
8 8 
8 8 
8 8 
8 8 
8 8 
8 8 
8 8 
8 8 
8 8 
8 8 
8 8 
8 8 
8 8 
8 8 
8 8 
8 8 
8 8 
8 8 
8 8 
8 8 
8 8 
8 8 
8 8 
8 8 
8 8 
8 8 
8 8 
8 8 
8 8 
8 8 
8 8 
8 8 
8 8 
8 8 
8 8 
8 8 
8 8 
8 8 
8 8 
8 8 
8 8 
8 8 
8 8 
8 8 
8 8 
8 8 
8 8 
8 8 
8 8 
8 8 
8 8 
8 8 
8 8 
8 8 
8 8 
8 8 
8 8 
8 8 
8 8 
8 8 
8 8 
8 8 
8 8 
8 8 
8 8 
8 8 
8 8 
8 8 
8 8 
8 8 
8 8 
8 8 
8 8 
8 8 
8 8 
8 8 
8 8 
8 8 
8 8 
8 8 
8 8 
8 8 
8 8 
8 8 
8 8 
8 8 
8 8 
8 8 
8 8 
8 8 
8 8 
8 8 
8 8 
8 8 
8 8 
8 8 
8 8 
8 8 
8 8 
8 8 
8 8 
8 8 
8 8 
8 8 
8 8 
8 8 
8 8 
8 8 
8 8 
8 8 
8 8 
8 8 
8 8 
8 8 
8 8 
8 8 
8 8 
8 8 
8 8 
8 8 
8 8 
8 8 
8 8 
8 8 
8 8 
8 8 
8 8 
8 8 
8 8 
8 8 
8 8 
8 8 
8 8 
8 8 
8 8 
8 8 
8 8 
8 8 
8 8 
8 8 
8 8 
8 8 
8 8 
8 8 
8 8 
8 8 
8 8 
8 8 
8 8 
8 8 
8 8 
8 8 
8 8 
8 8 
8 8 
8 8 
8 8 
8 8 
8 8 
8 8 
8 8 
8 8 
8 8 
8 8 
8 8 
8 8 
8 8 
8 8 
8 8 
8 8 
8 8 
Finished CPU 0 instructions: 1000000 cycles: 1776231 cumulative IPC: 0.56299 (Simulation time: 0 hr 0 min 43 sec) 
8 8 
8 8 
8 8 
8 8 
8 8 
8 8 
8 8 
8 8 
8 8 
8 8 
8 8 
8 8 
8 8 
8 8 
8 8 
8 8 
8 8 
8 8 
8 8 
8 8 
8 8 
8 8 
8 8 
8 8 
8 8 
8 8 
8 8 
8 8 
8 8 
8 8 
8 8 
8 8 
8 8 
8 8 
8 8 
8 8 
8 8 
8 8 
8 8 
8 8 
8 8 
8 8 
8 8 
8 8 
8 8 
8 8 
8 8 
8 8 
8 8 
8 8 
8 8 
8 8 
8 8 
8 8 
8 8 
8 8 
8 8 
8 8 
8 8 
8 8 
8 8 
8 8 
8 8 
8 8 
8 8 
8 8 
8 8 
8 8 
8 8 
8 8 
8 8 
8 8 
8 8 
8 8 
8 8 
8 8 
8 8 
8 8 
8 8 
8 8 
8 8 
8 8 
8 8 
8 8 
8 8 
8 8 
8 8 
8 8 
8 8 
8 8 
8 8 
8 8 
8 8 
8 8 
8 8 
8 8 
8 8 
8 8 
8 8 
8 8 
8 8 
8 8 
8 8 
8 8 
8 8 
8 8 
8 8 
8 8 
8 8 
8 8 
8 8 
8 8 
8 8 
8 8 
8 8 
8 8 
8 8 
8 8 
8 8 
8 8 
8 8 
8 8 
8 8 
8 8 
8 8 
8 8 
8 8 
8 8 
8 8 
8 8 
8 8 
8 8 
8 8 
8 8 
8 8 
8 8 
8 8 
8 8 
8 8 
8 8 
8 8 
8 8 
8 8 
8 8 
8 8 
8 8 
8 8 
8 8 
8 8 
8 8 
8 8 
8 8 
8 8 
8 8 
8 8 
8 8 
8 8 
8 8 
8 8 
8 8 
8 8 
8 8 
8 8 
8 8 
8 8 
8 8 
8 8 
8 8 
8 8 
8 8 
8 8 
8 8 
8 8 
8 8 
8 8 
8 8 
8 8 
8 8 
8 8 
8 8 
8 8 
8 8 
8 8 
8 8 
8 8 
8 8 
8 8 
8 8 
8 8 
8 8 
8 8 
8 8 
8 8 
8 8 
8 8 
8 8 
8 8 
8 8 
8 8 
8 8 
8 8 
8 8 
8 8 
8 8 
8 8 
8 8 
8 8 
8 8 
8 8 
8 8 
8 8 
8 8 
8 8 
8 8 
8 8 
8 8 
8 8 
8 8 
8 8 
8 8 
8 8 
8 8 
8 8 
8 8 
8 8 
8 8 
8 8 
8 8 
8 8 
8 8 
8 8 
8 8 
8 8 
8 8 
8 8 
8 8 
8 8 
8 8 
8 8 
8 8 
8 8 
8 8 
8 8 
8 8 
8 8 
8 8 
8 8 
8 8 
8 8 
8 8 
8 8 
8 8 
8 8 
8 8 
8 8 
8 8 
8 8 
8 8 
8 8 
8 8 
8 8 
8 8 
8 8 
8 8 
8 8 
8 8 
8 8 
8 8 
8 8 
8 8 
8 8 
8 8 
8 8 
8 8 
8 8 
8 8 
8 8 
8 8 
8 8 
8 8 
8 8 
8 8 
8 8 
8 8 
8 8 
8 8 
8 8 
8 8 
8 8 
8 8 
8 8 
8 8 
8 8 
8 8 
8 8 
8 8 
8 8 
8 8 
8 8 
8 8 
8 8 
8 8 
8 8 
8 8 
8 8 
8 8 
8 8 
8 8 
8 8 
8 8 
8 8 
8 8 
8 8 
8 8 
8 8 
8 8 
8 8 
8 8 
8 8 
8 8 
8 8 
8 8 
8 8 
8 8 
8 8 
8 8 
8 8 
8 8 
8 8 
8 8 
8 8 
8 8 
8 8 
8 8 
8 8 
8 8 
8 8 
8 8 
8 8 
8 8 
8 8 
8 8 
8 8 
8 8 
8 8 
8 8 
8 8 
8 8 
8 8 
8 8 
8 8 
8 8 
8 8 
8 8 
8 8 
8 8 
8 8 
8 8 
8 8 
8 8 
8 8 
8 8 
8 8 
8 8 
8 8 
8 8 
8 8 
8 8 
8 8 
8 8 
8 8 
8 8 
8 8 
8 8 
8 8 
8 8 
8 8 
8 8 
8 8 
8 8 
8 8 
8 8 
8 8 
8 8 
8 8 
8 8 
8 8 
8 8 
8 8 
8 8 
8 8 
8 8 
8 8 
8 8 
8 8 
8 8 
8 8 
8 8 
8 8 
8 8 
8 8 
8 8 
8 8 
8 8 
8 8 
8 8 
8 8 
8 8 
8 8 
8 8 
8 8 
8 8 
8 8 
8 8 
8 8 
8 8 
8 8 
8 8 
8 8 
8 8 
8 8 
8 8 
8 8 
8 8 
8 8 
8 8 
8 8 
8 8 
8 8 
8 8 
8 8 
8 8 
8 8 
8 8 
8 8 
8 8 
8 8 
8 8 
8 8 
8 8 
8 8 
8 8 
8 8 
8 8 
8 8 
8 8 
8 8 
8 8 
8 8 
8 8 
8 8 
8 8 
8 8 
8 8 
8 8 
8 8 
8 8 
8 8 
8 8 
8 8 
8 8 
8 8 
8 8 
8 8 
8 8 
8 8 
8 8 
8 8 
8 8 
8 8 
8 8 
8 8 
8 8 
8 8 
8 8 
8 8 
8 8 
8 8 
8 8 
8 8 
8 8 
8 8 
8 8 
8 8 
8 8 
8 8 
8 8 
8 8 
8 8 
8 8 
8 8 
8 8 
8 8 
8 8 
8 8 
8 8 
8 8 
8 8 
8 8 
8 8 
8 8 
8 8 
8 8 
8 8 
8 8 
8 8 
8 8 
8 8 
8 8 
8 8 
8 8 
8 8 
8 8 
8 8 
8 8 
8 8 
8 8 
8 8 
8 8 
8 8 
8 8 
8 8 
8 8 
8 8 
8 8 
8 8 
8 8 
8 8 
8 8 
8 8 
8 8 
8 8 
8 8 
8 8 
8 8 
8 8 
8 8 
8 8 
8 8 
8 8 
8 8 
8 8 
8 8 
8 8 
8 8 
8 8 
8 8 
8 8 
8 8 
8 8 
8 8 
8 8 
8 8 
8 8 
8 8 
8 8 
8 8 
8 8 
8 8 
8 8 
8 8 
8 8 
8 8 
8 8 
8 8 
8 8 
8 8 
8 8 
8 8 
8 8 
8 8 
8 8 
8 8 
8 8 
8 8 
8 8 
8 8 
8 8 
8 8 
8 8 
8 8 
8 8 
8 8 
8 8 
8 8 
8 8 
8 8 
8 8 
8 8 
8 8 
8 8 
8 8 
8 8 
8 8 
8 8 
8 8 
8 8 
8 8 
8 8 
8 8 
8 8 
8 8 
8 8 
8 8 
8 8 
8 8 
8 8 
8 8 
8 8 
8 8 
8 8 
8 8 
8 8 
8 8 
8 8 
8 8 
8 8 
8 8 
8 8 
8 8 
8 8 
8 8 
8 8 
8 8 
8 8 
8 8 
8 8 
8 8 
8 8 
8 8 
8 8 
8 8 
8 8 
8 8 
8 8 
8 8 
8 8 
8 8 
8 8 
8 8 
8 8 
8 8 
8 8 
8 8 
8 8 
8 8 
8 8 
8 8 
8 8 
8 8 
8 8 
8 8 
8 8 
8 8 
8 8 
8 8 
8 8 
8 8 
8 8 
8 8 
8 8 
8 8 
8 8 
8 8 
8 8 
8 8 
8 8 
8 8 
8 8 
8 8 
8 8 
8 8 
8 8 
8 8 
8 8 
8 8 
8 8 
8 8 
8 8 
8 8 
8 8 
8 8 
8 8 
8 8 
8 8 
8 8 
8 8 
8 8 
8 8 
8 8 
8 8 
8 8 
8 8 
8 8 
8 8 
8 8 
8 8 
8 8 
8 8 
8 8 
8 8 
8 8 
8 8 
8 8 
8 8 
8 8 
8 8 
8 8 
8 8 
8 8 
8 8 
8 8 
8 8 
8 8 
8 8 
8 8 
8 8 
8 8 
8 8 
8 8 
8 8 
8 8 
8 8 
8 8 
8 8 
8 8 
8 8 
8 8 
8 8 
8 8 
8 8 
8 8 
8 8 
8 8 
8 8 
8 8 
8 8 
8 8 
8 8 
8 8 
8 8 
8 8 
8 8 
8 8 
8 8 
8 8 
8 8 
8 8 
8 8 
8 8 
8 8 
8 8 
8 8 
8 8 
8 8 
8 8 
8 8 
8 8 
8 8 
8 8 
8 8 
8 8 
8 8 
8 8 
8 8 
8 8 
8 8 
8 8 
8 8 
8 8 
8 8 
8 8 
8 8 
8 8 
8 8 
8 8 
8 8 
8 8 
8 8 
8 8 
8 8 
8 8 
8 8 
8 8 
8 8 
8 8 
8 8 
8 8 
8 8 
8 8 
8 8 
8 8 
8 8 
8 8 
8 8 
8 8 
8 8 
8 8 
8 8 
8 8 
8 8 
8 8 
8 8 
8 8 
8 8 
8 8 
8 8 
8 8 
8 8 
8 8 
8 8 
8 8 
8 8 
8 8 
8 8 
8 8 
8 8 
8 8 
8 8 
8 8 
8 8 
8 8 
8 8 
8 8 
8 8 
8 8 
8 8 
8 8 
8 8 
8 8 
8 8 
8 8 
8 8 
8 8 
8 8 
8 8 
8 8 
8 8 
8 8 
8 8 
8 8 
8 8 
8 8 
8 8 
8 8 
8 8 
8 8 
8 8 
8 8 
8 8 
8 8 
8 8 
8 8 
8 8 
8 8 
8 8 
8 8 
8 8 
8 8 
8 8 
8 8 
8 8 
8 8 
8 8 
8 8 
8 8 
8 8 
8 8 
8 8 
8 8 
8 8 
8 8 
8 8 
8 8 
8 8 
8 8 
8 8 
8 8 
8 8 
8 8 
8 8 
8 8 
8 8 
8 8 
8 8 
8 8 
8 8 
8 8 
8 8 
8 8 
8 8 
8 8 
8 8 
8 8 
8 8 
8 8 
8 8 
8 8 
8 8 
8 8 
8 8 
8 8 
8 8 
8 8 
8 8 
8 8 
8 8 
8 8 
8 8 
8 8 
8 8 
8 8 
8 8 
8 8 
8 8 
8 8 
8 8 
8 8 
8 8 
8 8 
8 8 
8 8 
8 8 
8 8 
8 8 
8 8 
8 8 
8 8 
8 8 
8 8 
8 8 
8 8 
8 8 
8 8 
8 8 
8 8 
8 8 
8 8 
8 8 
8 8 
8 8 
8 8 
8 8 
8 8 
8 8 
8 8 
8 8 
8 8 
8 8 
8 8 
8 8 
8 8 
8 8 
8 8 
8 8 
8 8 
8 8 
8 8 
8 8 
8 8 
8 8 
8 8 
8 8 
8 8 
8 8 
8 8 
8 8 
8 8 
8 8 
8 8 
8 8 
8 8 
8 8 
8 8 
8 8 
8 8 
8 8 
8 8 
8 8 
8 8 
8 8 
8 8 
8 8 
8 8 
8 8 
8 8 
8 8 
8 8 
8 8 
8 8 
8 8 
8 8 
8 8 
8 8 
8 8 
8 8 
8 8 
8 8 
8 8 
8 8 
8 8 
8 8 
8 8 
8 8 
8 8 
8 8 
8 8 
8 8 
8 8 
8 8 
8 8 
8 8 
8 8 
8 8 
8 8 
8 8 
8 8 
8 8 
8 8 
8 8 
8 8 
8 8 
8 8 
8 8 
8 8 
8 8 
8 8 
8 8 
8 8 
8 8 
8 8 
8 8 
8 8 
8 8 
8 8 
8 8 
8 8 
8 8 
8 8 
8 8 
8 8 
8 8 
8 8 
8 8 
8 8 
8 8 
8 8 
8 8 
8 8 
8 8 
8 8 
8 8 
8 8 
8 8 
8 8 
8 8 
8 8 
8 8 
8 8 
8 8 
8 8 
8 8 
8 8 
8 8 
8 8 
8 8 
8 8 
8 8 
8 8 
8 8 
8 8 
8 8 
8 8 
8 8 
8 8 
8 8 
8 8 
8 8 
8 8 
8 8 
8 8 
8 8 
8 8 
8 8 
8 8 
8 8 
8 8 
8 8 
8 8 
8 8 
8 8 
8 8 
8 8 
8 8 
8 8 
8 8 
8 8 
8 8 
8 8 
8 8 
8 8 
8 8 
8 8 
8 8 
8 8 
8 8 
8 8 
8 8 
8 8 
8 8 
8 8 
8 8 
8 8 
8 8 
8 8 
8 8 
8 8 
8 8 
8 8 
8 8 
8 8 
8 8 
8 8 
8 8 
8 8 
8 8 
8 8 
8 8 
8 8 
8 8 
8 8 
8 8 
8 8 
8 8 
8 8 
8 8 
8 8 
8 8 
8 8 
8 8 
8 8 
8 8 
8 8 
8 8 
8 8 
8 8 
8 8 
8 8 
8 8 
8 8 
8 8 
8 8 
8 8 
8 8 
8 8 
8 8 
8 8 
8 8 
8 8 
8 8 
8 8 
8 8 
8 8 
8 8 
8 8 
8 8 
8 8 
8 8 
8 8 
8 8 
8 8 
8 8 
8 8 
8 8 
8 8 
8 8 
8 8 
8 8 
8 8 
8 8 
8 8 
8 8 
8 8 
8 8 
8 8 
8 8 
8 8 
8 8 
8 8 
8 8 
8 8 
8 8 
8 8 
8 8 
8 8 
8 8 
8 8 
8 8 
8 8 
8 8 
8 8 
8 8 
8 8 
8 8 
8 8 
8 8 
8 8 
8 8 
8 8 
8 8 
8 8 
8 8 
8 8 
8 8 
8 8 
8 8 
8 8 
8 8 
8 8 
8 8 
8 8 
8 8 
8 8 
8 8 
8 8 
8 8 
8 8 
8 8 
8 8 
8 8 
8 8 
8 8 
8 8 
8 8 
8 8 
8 8 
8 8 
8 8 
8 8 
8 8 
8 8 
8 8 
8 8 
8 8 
8 8 
8 8 
8 8 
8 8 
8 8 
8 8 
8 8 
8 8 
8 8 
8 8 
8 8 
8 8 
8 8 
8 8 
8 8 
8 8 
8 8 
8 8 
8 8 
8 8 
8 8 
8 8 
8 8 
8 8 
8 8 
8 8 
8 8 
8 8 
8 8 
8 8 
8 8 
8 8 
8 8 
8 8 
8 8 
8 8 
8 8 
8 8 
8 8 
8 8 
8 8 
8 8 
8 8 
8 8 
8 8 
8 8 
8 8 
8 8 
8 8 
8 8 
8 8 
8 8 
8 8 
8 8 
8 8 
8 8 
8 8 
8 8 
8 8 
8 8 
8 8 
8 8 
8 8 
8 8 
8 8 
8 8 
8 8 
8 8 
8 8 
8 8 
8 8 
8 8 
8 8 
8 8 
8 8 
8 8 
8 8 
8 8 
8 8 
8 8 
8 8 
8 8 
8 8 
8 8 
8 8 
8 8 
8 8 
8 8 
8 8 
8 8 
8 8 
8 8 
8 8 
8 8 
8 8 
8 8 
8 8 
8 8 
8 8 
8 8 
8 8 
8 8 
8 8 
8 8 
8 8 
8 8 
8 8 
8 8 
8 8 
8 8 
8 8 
8 8 
8 8 
8 8 
8 8 
8 8 
8 8 
8 8 
8 8 
8 8 
8 8 
8 8 
8 8 
8 8 
8 8 
8 8 
8 8 
8 8 
8 8 
8 8 
8 8 
8 8 
8 8 
8 8 
8 8 
8 8 
8 8 
8 8 
8 8 
8 8 
8 8 
8 8 
8 8 
8 8 
8 8 
8 8 
8 8 
8 8 
8 8 
8 8 
8 8 
8 8 
8 8 
8 8 
8 8 
8 8 
8 8 
8 8 
8 8 
8 8 
8 8 
8 8 
8 8 
8 8 
8 8 
8 8 
8 8 
8 8 
8 8 
8 8 
8 8 
8 8 
8 8 
8 8 
8 8 
8 8 
8 8 
8 8 
8 8 
8 8 
8 8 
8 8 
8 8 
8 8 
8 8 
8 8 
8 8 
8 8 
8 8 
8 8 
8 8 
8 8 
8 8 
8 8 
8 8 
8 8 
8 8 
8 8 
8 8 
8 8 
8 8 
8 8 
8 8 
8 8 
8 8 
8 8 
8 8 
8 8 
8 8 
8 8 
8 8 
8 8 
8 8 
8 8 
8 8 
8 8 
8 8 
8 8 
8 8 
8 8 
8 8 
8 8 
8 8 
8 8 
8 8 
8 8 
8 8 
8 8 
8 8 
8 8 
8 8 
8 8 
8 8 
8 8 
8 8 
8 8 
8 8 
8 8 
8 8 
8 8 
8 8 
8 8 
8 8 
8 8 
8 8 
8 8 
8 8 
8 8 
8 8 
8 8 
8 8 
8 8 
8 8 
8 8 
8 8 
8 8 
8 8 
8 8 
8 8 
8 8 
8 8 
8 8 
8 8 
8 8 
8 8 
8 8 
8 8 
8 8 
8 8 
8 8 
8 8 
8 8 
8 8 
8 8 
8 8 
8 8 
8 8 
8 8 
8 8 
8 8 
8 8 
8 8 
8 8 
8 8 
8 8 
8 8 
8 8 
8 8 
8 8 
8 8 
8 8 
8 8 
8 8 
8 8 
8 8 
8 8 
Finished CPU 1 instructions: 1000001 cycles: 1845899 cumulative IPC: 0.541742 (Simulation time: 0 hr 0 min 43 sec) 

ChampSim completed all CPUs

Total Simulation Statistics (not including warmup)

CPU 0 cumulative IPC: 0.562788 instructions: 1038850 cycles: 1845899
L1D TOTAL     ACCESS:     159988  HIT:     145431  MISS:      14557
L1D LOAD      ACCESS:      92246  HIT:      77689  MISS:      14557
L1D RFO       ACCESS:      67742  HIT:      67742  MISS:          0
L1D PREFETCH  ACCESS:          0  HIT:          0  MISS:          0
L1D WRITEBACK ACCESS:          0  HIT:          0  MISS:          0
L1I TOTAL     ACCESS:     169551  HIT:     169551  MISS:          0
L1I LOAD      ACCESS:     169551  HIT:     169551  MISS:          0
L1I RFO       ACCESS:          0  HIT:          0  MISS:          0
L1I PREFETCH  ACCESS:          0  HIT:          0  MISS:          0
L1I WRITEBACK ACCESS:          0  HIT:          0  MISS:          0
L2C TOTAL     ACCESS:      18118  HIT:       3561  MISS:      14557
L2C LOAD      ACCESS:      14557  HIT:          0  MISS:      14557
L2C RFO       ACCESS:          0  HIT:          0  MISS:          0
L2C PREFETCH  ACCESS:          0  HIT:          0  MISS:          0
L2C WRITEBACK ACCESS:       3561  HIT:       3561  MISS:          0
LLC TOTAL     ACCESS:      16461  HIT:       1265  MISS:      15196
LLC LOAD      ACCESS:      14557  HIT:          0  MISS:      14557
LLC RFO       ACCESS:          0  HIT:          0  MISS:          0
LLC PREFETCH  ACCESS:          0  HIT:          0  MISS:          0
LLC WRITEBACK ACCESS:       1904  HIT:       1265  MISS:        639

CPU 1 cumulative IPC: 0.541742 instructions: 1000001 cycles: 1845899
L1D TOTAL     ACCESS:     390489  HIT:     380912  MISS:       9577
L1D LOAD      ACCESS:     284461  HIT:     275736  MISS:       8725
L1D RFO       ACCESS:     106028  HIT:     105176  MISS:        852
L1D PREFETCH  ACCESS:          0  HIT:          0  MISS:          0
L1D WRITEBACK ACCESS:          0  HIT:          0  MISS:          0
L1I TOTAL     ACCESS:     148586  HIT:     148586  MISS:          0
L1I LOAD      ACCESS:     148586  HIT:     148586  MISS:          0
L1I RFO       ACCESS:          0  HIT:          0  MISS:          0
L1I PREFETCH  ACCESS:          0  HIT:          0  MISS:          0
L1I WRITEBACK ACCESS:          0  HIT:          0  MISS:          0
L2C TOTAL     ACCESS:      10466  HIT:       4931  MISS:       5535
L2C LOAD      ACCESS:       8725  HIT:       4042  MISS:       4683
L2C RFO       ACCESS:        852  HIT:          0  MISS:        852
L2C PREFETCH  ACCESS:          0  HIT:          0  MISS:          0
L2C WRITEBACK ACCESS:        889  HIT:        889  MISS:          0
LLC TOTAL     ACCESS:       6067  HIT:        532  MISS:       5535
LLC LOAD      ACCESS:       4683  HIT:          0  MISS:       4683
LLC RFO       ACCESS:        852  HIT:          0  MISS:        852
LLC PREFETCH  ACCESS:          0  HIT:          0  MISS:          0
LLC WRITEBACK ACCESS:        532  HIT:        532  MISS:          0

Region of Interest Statistics

CPU 0 cumulative IPC: 0.56299 instructions: 1000000 cycles: 1776231
L1D TOTAL     ACCESS:     154025  HIT:     140010  MISS:      14015
L1D LOAD      ACCESS:      88810  HIT:      74795  MISS:      14015
L1D RFO       ACCESS:      65215  HIT:      65215  MISS:          0
L1D PREFETCH  ACCESS:          0  HIT:          0  MISS:          0
L1D WRITEBACK ACCESS:          0  HIT:          0  MISS:          0
L1D PREFETCH  REQUESTED:          0  ISSUED:          0  USEFUL:          0  USELESS:          0
L1D AVERAGE MISS LATENCY: 207.595 cycles
L1I TOTAL     ACCESS:     163201  HIT:     163201  MISS:          0
L1I LOAD      ACCESS:     163201  HIT:     163201  MISS:          0
L1I RFO       ACCESS:          0  HIT:          0  MISS:          0
L1I PREFETCH  ACCESS:          0  HIT:          0  MISS:          0
L1I WRITEBACK ACCESS:          0  HIT:          0  MISS:          0
L1I PREFETCH  REQUESTED:          0  ISSUED:          0  USEFUL:          0  USELESS:          0
L1I AVERAGE MISS LATENCY: -nan cycles
L2C TOTAL     ACCESS:      17445  HIT:       3430  MISS:      14015
L2C LOAD      ACCESS:      14015  HIT:          0  MISS:      14015
L2C RFO       ACCESS:          0  HIT:          0  MISS:          0
L2C PREFETCH  ACCESS:          0  HIT:          0  MISS:          0
L2C WRITEBACK ACCESS:       3430  HIT:       3430  MISS:          0
L2C PREFETCH  REQUESTED:          0  ISSUED:          0  USEFUL:          0  USELESS:          0
L2C AVERAGE MISS LATENCY: 191.569 cycles
LLC TOTAL     ACCESS:      15810  HIT:       1182  MISS:      14628
LLC LOAD      ACCESS:      14015  HIT:          0  MISS:      14015
LLC RFO       ACCESS:          0  HIT:          0  MISS:          0
LLC PREFETCH  ACCESS:          0  HIT:          0  MISS:          0
LLC WRITEBACK ACCESS:       1795  HIT:       1182  MISS:        613
LLC PREFETCH  REQUESTED:          0  ISSUED:          0  USEFUL:          0  USELESS:          0
LLC AVERAGE MISS LATENCY: 243.81 cycles
Major fault: 0 Minor fault: 3265

CPU 1 cumulative IPC: 0.541742 instructions: 1000001 cycles: 1845899
L1D TOTAL     ACCESS:     390489  HIT:     380912  MISS:       9577
L1D LOAD      ACCESS:     284461  HIT:     275736  MISS:       8725
L1D RFO       ACCESS:     106028  HIT:     105176  MISS:        852
L1D PREFETCH  ACCESS:          0  HIT:          0  MISS:          0
L1D WRITEBACK ACCESS:          0  HIT:          0  MISS:          0
L1D PREFETCH  REQUESTED:          0  ISSUED:          0  USEFUL:          0  USELESS:          0
L1D AVERAGE MISS LATENCY: 201.797 cycles
L1I TOTAL     ACCESS:     148586  HIT:     148586  MISS:          0
L1I LOAD      ACCESS:     148586  HIT:     148586  MISS:          0
L1I RFO       ACCESS:          0  HIT:          0  MISS:          0
L1I PREFETCH  ACCESS:          0  HIT:          0  MISS:          0
L1I WRITEBACK ACCESS:          0  HIT:          0  MISS:          0
L1I PREFETCH  REQUESTED:          0  ISSUED:          0  USEFUL:          0  USELESS:          0
L1I AVERAGE MISS LATENCY: -nan cycles
L2C TOTAL     ACCESS:      10466  HIT:       4931  MISS:       5535
L2C LOAD      ACCESS:       8725  HIT:       4042  MISS:       4683
L2C RFO       ACCESS:        852  HIT:          0  MISS:        852
L2C PREFETCH  ACCESS:          0  HIT:          0  MISS:          0
L2C WRITEBACK ACCESS:        889  HIT:        889  MISS:          0
L2C PREFETCH  REQUESTED:          0  ISSUED:          0  USEFUL:          0  USELESS:          0
L2C AVERAGE MISS LATENCY: 281.581 cycles
LLC TOTAL     ACCESS:       6067  HIT:        532  MISS:       5535
LLC LOAD      ACCESS:       4683  HIT:          0  MISS:       4683
LLC RFO       ACCESS:        852  HIT:          0  MISS:        852
LLC PREFETCH  ACCESS:          0  HIT:          0  MISS:          0
LLC WRITEBACK ACCESS:        532  HIT:        532  MISS:          0
LLC PREFETCH  REQUESTED:          0  ISSUED:          0  USEFUL:          0  USELESS:          0
LLC AVERAGE MISS LATENCY: 644.345 cycles
Major fault: 0 Minor fault: 235

DRAM Statistics
 CHANNEL 0
 RQ ROW_BUFFER_HIT:       6016  ROW_BUFFER_MISS:      14077
 DBUS_CONGESTED:       2890
 WQ ROW_BUFFER_HIT:        299  ROW_BUFFER_MISS:        258  FULL:          0

 AVG_CONGESTED_CYCLE: 4

CPU 0 Branch Prediction Accuracy: 85.7186% MPKI: 1.60806 Average ROB Occupancy at Mispredict: 322.34

Branch types
NOT_BRANCH: 1022326 98.4094%
BRANCH_DIRECT_JUMP: 0 0%
BRANCH_INDIRECT: 0 0%
BRANCH_CONDITIONAL: 9510 0.915435%
BRANCH_DIRECT_CALL: 3567 0.34336%
BRANCH_INDIRECT_CALL: 0 0%
BRANCH_RETURN: 3567 0.34336%
BRANCH_OTHER: 0 0%


CPU 1 Branch Prediction Accuracy: 99.1424% MPKI: 0.00999997 Average ROB Occupancy at Mispredict: 341.5

Branch types
NOT_BRANCH: 998792 99.8791%
BRANCH_DIRECT_JUMP: 558 0.0557999%
BRANCH_INDIRECT: 0 0%
BRANCH_CONDITIONAL: 608 0.0607999%
BRANCH_DIRECT_CALL: 0 0%
BRANCH_INDIRECT_CALL: 0 0%
BRANCH_RETURN: 0 0%
BRANCH_OTHER: 0 0%

