
*** ChampSim Multicore Out-of-Order Simulator ***

Warmup Instructions: 1000000
Simulation Instructions: 1000000
Number of CPUs: 2
LLC sets: 4096
LLC ways: 16
Off-chip DRAM Size: 4096 MB Channels: 1 Width: 64-bit Data Rate: 3200 MT/s

CPU 0 runs /mnt/c/Users/Rishabh/Desktop/cs204/UCP-ChampSim/dpc3_traces/gcc_13B.trace.xz
CPU 1 runs /mnt/c/Users/Rishabh/Desktop/cs204/UCP-ChampSim/dpc3_traces/gcc_13B.trace.xz
CPU 0 Bimodal branch predictor
CPU 1 Bimodal branch predictor
16 0 
1 15 
16 0 
1 15 
15 1 
1 15 
15 1 
1 15 
14 2 
1 15 
14 2 
1 15 
14 2 
1 15 
13 3 
1 15 
13 3 
1 15 
12 4 
1 15 
11 5 
1 15 
11 5 
1 15 
10 6 
1 15 
10 6 
1 15 
10 6 
1 15 
9 7 
1 15 
9 7 
1 15 
8 8 
1 15 
7 9 
1 15 
7 9 
1 15 
7 9 
1 15 
7 9 
1 15 
6 10 
1 15 
5 11 
1 15 
4 12 
1 15 
4 12 
1 15 
4 12 
1 15 
3 13 
1 15 
2 14 
1 15 
2 14 
1 15 
2 14 
1 15 
1 15 
1 15 
1 15 
1 15 
1 15 
1 15 
1 15 
1 15 
1 15 
1 15 
1 15 
1 15 
1 15 
1 15 
1 15 
1 15 
1 15 
1 15 
1 15 
1 15 
1 15 
1 15 
1 15 
1 15 
1 15 
1 15 
1 15 
1 15 
1 15 
1 15 
1 15 
1 15 
1 15 
1 15 
1 15 
1 15 
1 15 
1 15 
1 15 
1 15 
1 15 
1 15 
1 15 
1 15 
1 15 
1 15 
1 15 
1 15 
1 15 
1 15 
1 15 
1 15 
1 15 
1 15 
1 15 
1 15 
1 15 
1 15 
1 15 
1 15 
1 15 
1 15 
1 15 
1 15 
1 15 
1 15 
1 15 
1 15 
1 15 
1 15 
1 15 
1 15 
1 15 
1 15 
1 15 
1 15 
1 15 
1 15 
1 15 
1 15 
1 15 
1 15 
1 15 
1 15 
1 15 
1 15 
1 15 
1 15 
1 15 
1 15 
1 15 
1 15 
1 15 
1 15 
1 15 
1 15 
1 15 
1 15 
1 15 
1 15 
1 15 
1 15 
1 15 
1 15 
1 15 
1 15 
1 15 
1 15 
1 15 
1 15 
1 15 
1 15 
1 15 
1 15 
1 15 
1 15 
1 15 
1 15 
1 15 
1 15 
1 15 
1 15 
1 15 
1 15 
1 15 
1 15 
1 15 
1 15 
1 15 
1 15 
1 15 
1 15 
1 15 
1 15 
1 15 
1 15 
1 15 
1 15 
1 15 
1 15 
1 15 
1 15 
1 15 
1 15 
1 15 
1 15 
1 15 
1 15 
1 15 
1 15 
1 15 
1 15 
1 15 
1 15 
1 15 
1 15 
1 15 
1 15 
1 15 
1 15 
1 15 
1 15 
1 15 
1 15 
1 15 
1 15 
1 15 
1 15 
1 15 
1 15 
1 15 
1 15 
1 15 
1 15 
1 15 
1 15 
1 15 
1 15 
1 15 
1 15 
1 15 
1 15 
1 15 
1 15 
1 15 
1 15 
1 15 
1 15 
1 15 
1 15 
1 15 
1 15 
1 15 
1 15 
1 15 
1 15 
1 15 
1 15 
1 15 
1 15 
1 15 
1 15 
1 15 
1 15 
1 15 
1 15 
1 15 
1 15 
1 15 
1 15 
1 15 
1 15 
1 15 
1 15 
1 15 
1 15 
1 15 
1 15 
1 15 
1 15 
1 15 
1 15 
1 15 
1 15 
1 15 
1 15 
1 15 
1 15 
1 15 
1 15 
1 15 
1 15 
1 15 
1 15 
1 15 
1 15 
1 15 
1 15 
1 15 
1 15 
1 15 
1 15 
1 15 
1 15 
1 15 
1 15 
1 15 
1 15 
1 15 
1 15 
1 15 
1 15 
1 15 
1 15 
1 15 
1 15 
1 15 
1 15 
1 15 
1 15 
1 15 
1 15 
1 15 
1 15 
1 15 
1 15 
1 15 
1 15 
1 15 
1 15 
1 15 
1 15 
1 15 
1 15 
1 15 
1 15 
1 15 
1 15 
1 15 
1 15 
1 15 
1 15 
1 15 
1 15 
1 15 
1 15 
1 15 
1 15 
1 15 
1 15 
1 15 
1 15 
1 15 
1 15 
1 15 
1 15 
1 15 
1 15 
1 15 
1 15 
1 15 
1 15 
1 15 
1 15 
1 15 
1 15 
1 15 
1 15 
1 15 
1 15 
1 15 
1 15 
1 15 
1 15 
1 15 
1 15 
1 15 
1 15 
1 15 
1 15 
1 15 
1 15 
1 15 
1 15 
1 15 
1 15 
1 15 
1 15 
1 15 
1 15 
1 15 
1 15 
1 15 
1 15 
1 15 
1 15 
1 15 
1 15 
1 15 
1 15 
1 15 
1 15 
1 15 
1 15 
1 15 
1 15 
1 15 
1 15 
1 15 
1 15 
1 15 
1 15 
1 15 
1 15 
1 15 
1 15 
1 15 
1 15 
1 15 
1 15 
1 15 
1 15 
1 15 
1 15 
1 15 
1 15 
1 15 
1 15 
1 15 
1 15 
1 15 
1 15 
1 15 
1 15 
1 15 
1 15 
1 15 
1 15 
1 15 
1 15 
1 15 
1 15 
1 15 
1 15 
1 15 
1 15 
1 15 
1 15 
1 15 
1 15 
1 15 
1 15 
1 15 
1 15 
1 15 
1 15 
1 15 
1 15 
1 15 
1 15 
1 15 
1 15 
1 15 
1 15 
1 15 
1 15 
1 15 
1 15 
1 15 
1 15 
1 15 
1 15 
1 15 
1 15 
1 15 
1 15 
1 15 
1 15 
1 15 
1 15 
1 15 
1 15 
1 15 
1 15 
1 15 
1 15 
1 15 
1 15 
1 15 
1 15 
1 15 
1 15 
1 15 
1 15 
1 15 
1 15 
1 15 
1 15 
1 15 
1 15 
1 15 
1 15 
1 15 
1 15 
1 15 
1 15 
1 15 
1 15 
1 15 
1 15 
1 15 
1 15 
1 15 
1 15 
1 15 
1 15 
1 15 
1 15 
1 15 
1 15 
1 15 
1 15 
1 15 
1 15 
1 15 
1 15 
1 15 
1 15 
1 15 
1 15 
1 15 
1 15 
1 15 
1 15 
1 15 
1 15 
1 15 
1 15 
1 15 
1 15 
1 15 
1 15 
1 15 
1 15 
1 15 
1 15 
1 15 
1 15 
1 15 
1 15 
1 15 
1 15 
1 15 
1 15 
1 15 
1 15 
1 15 
1 15 
1 15 
1 15 
1 15 
1 15 
1 15 
1 15 
1 15 
1 15 
1 15 
1 15 
1 15 
1 15 
1 15 
1 15 
1 15 
1 15 
1 15 
1 15 
1 15 
1 15 
1 15 
1 15 
1 15 
1 15 
1 15 
1 15 
1 15 
1 15 
1 15 
1 15 
1 15 
1 15 
1 15 
1 15 
1 15 
1 15 
1 15 
1 15 
1 15 
1 15 
1 15 
1 15 
1 15 
1 15 
1 15 
1 15 
1 15 
1 15 
1 15 
1 15 
1 15 
1 15 
1 15 
1 15 
1 15 
1 15 
1 15 
1 15 
1 15 
1 15 
1 15 
1 15 
1 15 
1 15 
1 15 
1 15 
1 15 
1 15 
1 15 
1 15 
1 15 
1 15 
1 15 
1 15 
1 15 
1 15 
1 15 
1 15 
1 15 
1 15 
1 15 
1 15 
1 15 
1 15 
1 15 
1 15 
1 15 
1 15 
1 15 
1 15 
1 15 
1 15 
1 15 
1 15 
1 15 
1 15 
1 15 
1 15 
1 15 
1 15 
1 15 
1 15 
1 15 
1 15 
1 15 
1 15 
1 15 
1 15 
1 15 
1 15 
1 15 
1 15 
1 15 
1 15 
1 15 
1 15 
1 15 
1 15 
1 15 
1 15 
1 15 
1 15 
1 15 
1 15 
1 15 
1 15 
1 15 
1 15 
1 15 
1 15 
1 15 
1 15 
1 15 
1 15 
1 15 
1 15 
1 15 
1 15 
1 15 
1 15 
1 15 
1 15 
1 15 
1 15 
1 15 
1 15 
1 15 
1 15 
1 15 
1 15 
1 15 
1 15 
1 15 
1 15 
1 15 
1 15 
1 15 
1 15 
1 15 
1 15 
1 15 
1 15 
1 15 
1 15 
1 15 
1 15 
1 15 
1 15 
1 15 
1 15 
1 15 
1 15 
1 15 
1 15 
1 15 
1 15 
1 15 
1 15 
1 15 
1 15 
1 15 
1 15 
1 15 
1 15 
1 15 
1 15 
1 15 
1 15 
1 15 
1 15 
1 15 
1 15 
1 15 
1 15 
1 15 
1 15 
1 15 
1 15 
1 15 
1 15 
1 15 
1 15 
1 15 
1 15 
1 15 
1 15 
1 15 
1 15 
1 15 
1 15 
1 15 
1 15 
1 15 
1 15 
1 15 
1 15 
1 15 
1 15 
1 15 
1 15 
1 15 
1 15 
1 15 
1 15 
1 15 
1 15 
1 15 
1 15 
1 15 
1 15 
1 15 
1 15 
1 15 
1 15 
1 15 
1 15 
1 15 
1 15 
1 15 
1 15 
1 15 
1 15 
1 15 
1 15 
1 15 
1 15 
1 15 
1 15 
1 15 
1 15 
1 15 
1 15 
1 15 
1 15 
1 15 
1 15 
1 15 
1 15 
1 15 
1 15 
1 15 
1 15 
1 15 
1 15 
1 15 
1 15 
1 15 
1 15 
1 15 
1 15 
1 15 
1 15 
1 15 
1 15 
1 15 
1 15 
1 15 
1 15 
1 15 
1 15 
1 15 
1 15 
1 15 
1 15 
1 15 
1 15 
1 15 
1 15 
1 15 
1 15 
1 15 
1 15 
1 15 
1 15 
1 15 
1 15 
1 15 
1 15 
1 15 
1 15 
1 15 
1 15 
1 15 
1 15 
1 15 
1 15 
1 15 
1 15 
1 15 
1 15 
1 15 
1 15 
1 15 
1 15 
1 15 
1 15 
1 15 
1 15 
1 15 
1 15 
1 15 
1 15 
1 15 
1 15 
1 15 
1 15 
1 15 
1 15 
1 15 
1 15 
1 15 
1 15 
1 15 
1 15 
1 15 
1 15 
1 15 
1 15 
1 15 
1 15 
1 15 
1 15 
1 15 
1 15 
1 15 
1 15 
1 15 
1 15 
1 15 
1 15 
1 15 
1 15 
1 15 
1 15 
1 15 
1 15 
1 15 
1 15 
1 15 
1 15 
1 15 
1 15 
1 15 
1 15 
1 15 
1 15 
1 15 
1 15 
1 15 
1 15 
1 15 
1 15 
1 15 
1 15 
1 15 
1 15 
1 15 
1 15 
1 15 
1 15 
1 15 
1 15 
1 15 
1 15 
1 15 
1 15 
1 15 
1 15 
1 15 
1 15 
1 15 
1 15 
1 15 
1 15 
1 15 
1 15 
1 15 
1 15 
1 15 
1 15 
1 15 
1 15 
1 15 
1 15 
1 15 
1 15 
1 15 
1 15 
1 15 
1 15 
1 15 
1 15 
1 15 
1 15 
1 15 
1 15 
1 15 
1 15 
1 15 
1 15 
1 15 
1 15 
1 15 
1 15 
1 15 
1 15 
1 15 
1 15 
1 15 
1 15 
1 15 
1 15 
1 15 
1 15 
1 15 
1 15 
1 15 
1 15 
1 15 
1 15 
1 15 
1 15 
1 15 
1 15 
1 15 
1 15 
1 15 
1 15 
1 15 
1 15 
1 15 
1 15 
1 15 
1 15 
1 15 
1 15 
1 15 
1 15 
1 15 
1 15 
1 15 
1 15 
1 15 
1 15 
1 15 
1 15 
1 15 
1 15 
1 15 
1 15 
1 15 
1 15 
1 15 
1 15 
1 15 
1 15 
1 15 
1 15 
1 15 
1 15 
1 15 
1 15 
1 15 
1 15 
1 15 
1 15 
1 15 
1 15 
1 15 
1 15 
1 15 
1 15 
1 15 
1 15 
1 15 
1 15 
1 15 
1 15 
1 15 
1 15 
1 15 
1 15 
1 15 
1 15 
1 15 
1 15 
1 15 
1 15 
1 15 
1 15 
1 15 
1 15 
1 15 
1 15 
1 15 
1 15 
1 15 
1 15 
1 15 
1 15 
1 15 
1 15 
1 15 
1 15 
1 15 
1 15 
1 15 
1 15 
1 15 
1 15 
1 15 
1 15 
1 15 
1 15 
1 15 
1 15 
1 15 
1 15 
1 15 
1 15 
1 15 
1 15 
1 15 
1 15 
1 15 
1 15 
1 15 
1 15 
1 15 
1 15 
1 15 
1 15 
1 15 
1 15 
1 15 
1 15 
1 15 
1 15 
1 15 
1 15 
1 15 
1 15 
1 15 
1 15 
1 15 
1 15 
1 15 
1 15 
1 15 
1 15 
1 15 
1 15 
1 15 
1 15 
1 15 
1 15 
1 15 
1 15 
1 15 
1 15 
1 15 
1 15 
1 15 
1 15 
1 15 
1 15 
1 15 
1 15 
1 15 
1 15 
1 15 
1 15 
1 15 
1 15 
1 15 
1 15 
1 15 
1 15 
1 15 
1 15 
1 15 
1 15 
1 15 
1 15 
1 15 
1 15 
1 15 
1 15 
1 15 
1 15 
1 15 
1 15 
1 15 
1 15 
1 15 
1 15 
1 15 
1 15 
1 15 
1 15 
1 15 
1 15 
1 15 
1 15 
1 15 
1 15 
1 15 
1 15 
1 15 
1 15 
1 15 
1 15 
1 15 
1 15 
1 15 
1 15 
1 15 
1 15 
1 15 
1 15 
1 15 
1 15 
1 15 
1 15 
1 15 
1 15 
1 15 
1 15 
1 15 
1 15 
1 15 
1 15 
1 15 
1 15 
1 15 
1 15 
1 15 
1 15 
1 15 
1 15 
1 15 
1 15 
1 15 
1 15 
1 15 
1 15 
1 15 
1 15 
1 15 
1 15 
1 15 
1 15 
1 15 
1 15 
1 15 
1 15 
1 15 
1 15 
1 15 
1 15 
1 15 
1 15 
1 15 
1 15 
1 15 
1 15 
1 15 
1 15 
1 15 
1 15 
1 15 
1 15 
1 15 
1 15 
1 15 
1 15 
1 15 
1 15 
1 15 
1 15 
1 15 
1 15 
1 15 
1 15 
1 15 
1 15 
1 15 
1 15 
1 15 
1 15 
1 15 
1 15 
1 15 
1 15 
1 15 
1 15 
1 15 
1 15 
1 15 
1 15 
1 15 
1 15 
1 15 
1 15 
1 15 
1 15 
1 15 
1 15 
1 15 
1 15 
1 15 
1 15 
1 15 
1 15 
1 15 
1 15 
1 15 
1 15 
1 15 
1 15 
1 15 
1 15 
1 15 
1 15 
1 15 
1 15 
1 15 
1 15 
1 15 
1 15 
1 15 
1 15 
1 15 
1 15 
1 15 
1 15 
1 15 
1 15 
1 15 
1 15 
1 15 
1 15 
1 15 
1 15 
1 15 
1 15 
1 15 
1 15 
1 15 
1 15 
1 15 
1 15 
1 15 
1 15 
1 15 
1 15 
1 15 
1 15 
1 15 
1 15 
1 15 
1 15 
1 15 
1 15 
1 15 
1 15 
1 15 
1 15 
1 15 
1 15 
1 15 
1 15 
1 15 
1 15 
1 15 
1 15 
1 15 
1 15 
1 15 
1 15 
1 15 
1 15 
1 15 
1 15 
1 15 
1 15 
1 15 
1 15 
1 15 
1 15 
1 15 
1 15 
1 15 
1 15 
1 15 
1 15 
1 15 
1 15 
1 15 
1 15 
1 15 
1 15 
1 15 
1 15 
1 15 
1 15 
1 15 
1 15 
1 15 
1 15 
1 15 
1 15 
1 15 
1 15 
1 15 
1 15 
1 15 
1 15 
1 15 
1 15 
1 15 
1 15 
1 15 
1 15 
1 15 
1 15 
1 15 
1 15 
1 15 
1 15 
1 15 
1 15 
1 15 
1 15 
1 15 
1 15 
1 15 
1 15 
1 15 
1 15 
1 15 
1 15 
1 15 
1 15 
1 15 
1 15 
1 15 
1 15 
1 15 
1 15 
1 15 
1 15 
1 15 
1 15 
1 15 
1 15 
1 15 
1 15 
1 15 
1 15 
1 15 
1 15 
1 15 
1 15 
1 15 
1 15 
1 15 
1 15 
1 15 
1 15 
1 15 
1 15 
1 15 
1 15 
1 15 
1 15 
1 15 
1 15 
1 15 
1 15 
1 15 
1 15 
1 15 
1 15 
1 15 
1 15 
1 15 
1 15 
1 15 
1 15 
1 15 
1 15 
1 15 
1 15 
1 15 
1 15 
1 15 
1 15 
1 15 
1 15 
1 15 
1 15 
1 15 
1 15 
1 15 
1 15 
1 15 
1 15 
1 15 
1 15 
1 15 
1 15 
1 15 
1 15 
1 15 
1 15 
1 15 
1 15 
1 15 
1 15 
1 15 
1 15 
1 15 
1 15 
1 15 
1 15 
1 15 
1 15 
1 15 
1 15 
1 15 
1 15 
1 15 
1 15 
1 15 
1 15 
1 15 
1 15 
1 15 
1 15 
1 15 
1 15 
1 15 
1 15 
1 15 
1 15 
1 15 
1 15 
1 15 
1 15 
1 15 
1 15 
1 15 
1 15 
1 15 
1 15 
1 15 
1 15 
1 15 
1 15 
1 15 
1 15 
1 15 
1 15 
1 15 
1 15 
1 15 
1 15 
1 15 
1 15 
1 15 
1 15 
1 15 
1 15 
1 15 
1 15 
1 15 
1 15 
1 15 
1 15 
1 15 
1 15 
1 15 
1 15 
1 15 
1 15 
1 15 
1 15 
1 15 
1 15 
1 15 
1 15 
1 15 
1 15 
1 15 
1 15 
1 15 
1 15 
1 15 
1 15 
1 15 
1 15 
1 15 
1 15 
1 15 
1 15 
1 15 
1 15 
1 15 
1 15 
1 15 
1 15 
1 15 
1 15 
1 15 
1 15 
1 15 
1 15 
1 15 
1 15 
1 15 
1 15 
1 15 
1 15 
1 15 
1 15 
1 15 
1 15 
1 15 
1 15 
1 15 
1 15 
1 15 
1 15 
1 15 
1 15 
1 15 
1 15 
1 15 
1 15 
1 15 
1 15 
1 15 
1 15 
1 15 
1 15 
1 15 
1 15 
1 15 
1 15 
1 15 
1 15 
1 15 
1 15 
1 15 
1 15 
1 15 
1 15 
1 15 
1 15 
1 15 
1 15 
1 15 
1 15 
1 15 
1 15 
1 15 
1 15 
1 15 
1 15 
1 15 
1 15 
1 15 
1 15 
1 15 
1 15 
1 15 
1 15 
1 15 
1 15 
1 15 
1 15 
1 15 
1 15 
1 15 
1 15 
1 15 
1 15 
1 15 
1 15 
1 15 
1 15 
1 15 
1 15 
1 15 
1 15 
1 15 
1 15 
1 15 
1 15 
1 15 
1 15 
1 15 
1 15 
1 15 
1 15 
1 15 
1 15 
1 15 
1 15 
1 15 
1 15 
1 15 
1 15 
1 15 
1 15 
1 15 
1 15 
1 15 
1 15 
1 15 
1 15 
1 15 
1 15 
1 15 
1 15 
1 15 
1 15 
1 15 
1 15 
1 15 
1 15 
1 15 
1 15 
1 15 
1 15 
1 15 
1 15 
1 15 
1 15 
1 15 
1 15 
1 15 
1 15 
1 15 
1 15 
1 15 
1 15 
1 15 
1 15 
1 15 
1 15 
1 15 
1 15 
1 15 
1 15 
1 15 
1 15 
1 15 
1 15 
1 15 
1 15 
1 15 
1 15 
1 15 
1 15 
1 15 
1 15 
1 15 
1 15 
1 15 
1 15 
1 15 
1 15 
1 15 
1 15 
1 15 
1 15 
1 15 
1 15 
1 15 
1 15 
1 15 
1 15 
1 15 
1 15 
1 15 
1 15 
1 15 
1 15 
1 15 
1 15 
1 15 
1 15 
1 15 
1 15 
1 15 
1 15 
1 15 
1 15 
1 15 
1 15 
1 15 
1 15 
1 15 
1 15 
1 15 
1 15 
1 15 
1 15 
1 15 
1 15 
1 15 
1 15 
1 15 
1 15 
1 15 
1 15 
1 15 
1 15 
1 15 
1 15 
1 15 
1 15 
1 15 
1 15 
1 15 
1 15 
1 15 
1 15 
1 15 
1 15 
1 15 
1 15 
1 15 
1 15 
1 15 
1 15 
1 15 
1 15 
1 15 
1 15 
1 15 
1 15 
1 15 
1 15 
1 15 
1 15 
1 15 
1 15 
1 15 
1 15 
1 15 
1 15 
1 15 
1 15 
1 15 
1 15 
1 15 
1 15 
1 15 
1 15 
1 15 
1 15 
1 15 
1 15 
1 15 
1 15 
1 15 
1 15 
1 15 
1 15 
1 15 
1 15 
1 15 
1 15 
1 15 
1 15 
1 15 
1 15 
1 15 
1 15 
1 15 
1 15 
1 15 
1 15 
1 15 
1 15 
1 15 
1 15 
1 15 
1 15 
1 15 
1 15 
1 15 
1 15 
1 15 
1 15 
1 15 
1 15 
1 15 
1 15 
1 15 
1 15 
1 15 
1 15 
1 15 
1 15 
1 15 
1 15 
1 15 
1 15 
1 15 
1 15 
1 15 
1 15 
1 15 
1 15 
1 15 
1 15 
1 15 
1 15 
1 15 
1 15 
1 15 
1 15 
1 15 
1 15 
1 15 
1 15 
1 15 
1 15 
1 15 
1 15 
1 15 
1 15 
1 15 
1 15 
1 15 
1 15 
1 15 
1 15 
1 15 
1 15 
1 15 
1 15 
1 15 
1 15 
1 15 
1 15 
1 15 
1 15 
1 15 
1 15 
1 15 
1 15 
1 15 
1 15 
1 15 
1 15 
1 15 
1 15 
1 15 
1 15 
1 15 
1 15 
1 15 
1 15 
1 15 
1 15 
1 15 
1 15 
1 15 
1 15 
1 15 
1 15 
1 15 
1 15 
1 15 
1 15 
1 15 
1 15 
1 15 
1 15 
1 15 
1 15 
1 15 
1 15 
1 15 
1 15 
1 15 
1 15 
1 15 
1 15 
1 15 
1 15 
1 15 
1 15 
1 15 
1 15 
1 15 
1 15 
1 15 
1 15 
1 15 
1 15 
1 15 
1 15 
1 15 
1 15 
1 15 
1 15 
1 15 
1 15 
1 15 
1 15 
1 15 
1 15 
1 15 
1 15 
1 15 
15 1 
2 14 
15 1 
2 14 
15 1 
3 13 
15 1 
3 13 
15 1 
4 12 
15 1 
4 12 
15 1 
5 11 
15 1 
5 11 
15 1 
6 10 
15 1 
6 10 
15 1 
7 9 
15 1 
7 9 
15 1 
8 8 
15 1 
8 8 
15 1 
9 7 
15 1 
9 7 
15 1 
10 6 
15 1 
10 6 
15 1 
11 5 
15 1 
11 5 
15 1 
12 4 
15 1 
12 4 
15 1 
13 3 
15 1 
13 3 
15 1 
14 2 
15 1 
14 2 
15 1 
15 1 
15 1 
15 1 
15 1 
15 1 
15 1 
15 1 
15 1 
15 1 
15 1 
15 1 
15 1 
15 1 
15 1 
15 1 
15 1 
15 1 
15 1 
15 1 
15 1 
15 1 
15 1 
15 1 
15 1 
15 1 
15 1 
15 1 
15 1 
15 1 
15 1 
15 1 
15 1 
15 1 
15 1 
15 1 
15 1 
15 1 
15 1 
15 1 
15 1 
15 1 
15 1 
15 1 
15 1 
15 1 
15 1 
15 1 
15 1 
15 1 
15 1 
15 1 
15 1 
15 1 
15 1 
15 1 
15 1 
15 1 
15 1 
15 1 
15 1 
15 1 
15 1 
15 1 
15 1 
15 1 
15 1 
15 1 
15 1 
15 1 
15 1 
15 1 
15 1 
15 1 
15 1 
15 1 
15 1 
15 1 
15 1 
15 1 
15 1 
15 1 
15 1 
15 1 
15 1 
15 1 
15 1 
15 1 
15 1 
15 1 
15 1 
15 1 
15 1 
15 1 
15 1 
15 1 
15 1 
15 1 
15 1 
15 1 
15 1 
15 1 
15 1 
15 1 
15 1 
15 1 
15 1 
15 1 
15 1 
15 1 
15 1 
15 1 
15 1 
15 1 
15 1 
15 1 
15 1 
15 1 
15 1 
15 1 
15 1 
15 1 
15 1 
15 1 
15 1 
15 1 
15 1 
15 1 
15 1 
15 1 
15 1 
15 1 
15 1 
15 1 
15 1 
15 1 
15 1 
15 1 
15 1 
15 1 
15 1 
15 1 
15 1 
15 1 
15 1 
15 1 
15 1 
15 1 
15 1 
15 1 
15 1 
15 1 
15 1 
15 1 
15 1 
15 1 
15 1 
15 1 
15 1 
15 1 
15 1 
15 1 
15 1 
15 1 
15 1 
15 1 
15 1 
15 1 
15 1 
15 1 
15 1 
15 1 
15 1 
15 1 
15 1 
15 1 
15 1 
15 1 
15 1 
15 1 
15 1 
15 1 
15 1 
15 1 
15 1 
15 1 
15 1 
15 1 
15 1 
15 1 
15 1 
15 1 
15 1 
15 1 
15 1 
15 1 
15 1 
15 1 
15 1 
15 1 
15 1 
15 1 
15 1 
15 1 
15 1 
15 1 
15 1 
15 1 
15 1 
15 1 
15 1 
15 1 
15 1 
15 1 
15 1 
15 1 
15 1 
15 1 
15 1 
15 1 
15 1 
15 1 
15 1 
15 1 
15 1 
15 1 
15 1 
15 1 
15 1 
15 1 
15 1 
15 1 
15 1 
15 1 
15 1 
15 1 
15 1 
15 1 
15 1 
15 1 
15 1 
15 1 
15 1 
15 1 
15 1 
15 1 
15 1 
15 1 
15 1 
15 1 
15 1 
15 1 
15 1 
15 1 
15 1 
15 1 
15 1 
15 1 
15 1 
15 1 
15 1 
15 1 
15 1 
15 1 
15 1 
15 1 
15 1 
15 1 
15 1 
15 1 
15 1 
15 1 
15 1 
15 1 
15 1 
15 1 
15 1 
15 1 
15 1 
15 1 
15 1 
15 1 
15 1 
15 1 
15 1 
15 1 
15 1 
15 1 
15 1 
15 1 
15 1 
15 1 
15 1 
15 1 
15 1 
15 1 
15 1 
15 1 
15 1 
15 1 
15 1 
15 1 
15 1 
15 1 
15 1 
15 1 
15 1 
15 1 
15 1 
15 1 
15 1 
15 1 
15 1 
15 1 
15 1 
15 1 
15 1 
15 1 
15 1 
15 1 
15 1 
15 1 
15 1 
15 1 
15 1 
15 1 
15 1 
15 1 
15 1 
15 1 
15 1 
15 1 
15 1 
15 1 
15 1 
15 1 
15 1 
15 1 
15 1 
15 1 
15 1 
15 1 
15 1 
15 1 
15 1 
15 1 
15 1 
15 1 
15 1 
15 1 
15 1 
15 1 
15 1 
15 1 
15 1 
15 1 
15 1 
15 1 
15 1 
15 1 
15 1 
15 1 
15 1 
15 1 
15 1 
15 1 
15 1 
15 1 
15 1 
15 1 
15 1 
15 1 
15 1 
15 1 
15 1 
15 1 
15 1 
15 1 
15 1 
15 1 
15 1 
15 1 
15 1 
15 1 
15 1 
15 1 
15 1 
15 1 
15 1 
15 1 
15 1 
15 1 
15 1 
15 1 
15 1 
15 1 
15 1 
15 1 
15 1 
15 1 
15 1 
15 1 
15 1 
15 1 
15 1 
15 1 
15 1 
15 1 
15 1 
15 1 
15 1 
15 1 
15 1 
15 1 
15 1 
15 1 
15 1 
15 1 
15 1 
15 1 
15 1 
15 1 
15 1 
15 1 
15 1 
15 1 
15 1 
15 1 
15 1 
15 1 
15 1 
15 1 
15 1 
15 1 
15 1 
15 1 
15 1 
15 1 
15 1 
15 1 
15 1 
15 1 
15 1 
15 1 
15 1 
15 1 
15 1 
15 1 
15 1 
15 1 
15 1 
15 1 
15 1 
15 1 
15 1 
15 1 
15 1 
15 1 
15 1 
15 1 
15 1 
15 1 
15 1 
15 1 
15 1 
15 1 
15 1 
15 1 
15 1 
15 1 
15 1 
15 1 
15 1 
15 1 
15 1 
15 1 
15 1 
15 1 
15 1 
15 1 
15 1 
15 1 
15 1 
15 1 
15 1 
15 1 
15 1 
15 1 
15 1 
15 1 
15 1 
15 1 
15 1 
15 1 
15 1 
15 1 
15 1 
15 1 
15 1 
15 1 
15 1 
15 1 
15 1 
15 1 
15 1 
15 1 
15 1 
15 1 
15 1 
15 1 
15 1 
15 1 
15 1 
15 1 
15 1 
15 1 
15 1 
15 1 
15 1 
15 1 
15 1 
15 1 
15 1 
15 1 
15 1 
15 1 
15 1 
15 1 
15 1 
15 1 
15 1 
15 1 
15 1 
15 1 
15 1 
15 1 
15 1 
15 1 
15 1 
15 1 
15 1 
15 1 
15 1 
15 1 
15 1 
15 1 
15 1 
15 1 
15 1 
15 1 
15 1 
15 1 
15 1 
15 1 
15 1 
15 1 
15 1 
15 1 
15 1 
15 1 
15 1 
15 1 
15 1 
15 1 
15 1 
15 1 
15 1 
15 1 
15 1 
15 1 
15 1 
15 1 
15 1 
15 1 
15 1 
15 1 
15 1 
15 1 
15 1 
15 1 
15 1 
15 1 
15 1 
15 1 
15 1 
15 1 
15 1 
15 1 
15 1 
15 1 
15 1 
15 1 
15 1 
15 1 
15 1 
15 1 
15 1 
15 1 
15 1 
15 1 
15 1 
15 1 
15 1 
15 1 
15 1 
15 1 
15 1 
15 1 
15 1 
15 1 
15 1 
15 1 
15 1 
15 1 
15 1 
15 1 
15 1 
15 1 
15 1 
15 1 
15 1 
15 1 
15 1 
15 1 
15 1 
15 1 
15 1 
15 1 
15 1 
15 1 
15 1 
15 1 
15 1 
15 1 
15 1 
15 1 
15 1 
15 1 
15 1 
15 1 
15 1 
15 1 
15 1 
15 1 
15 1 
15 1 
15 1 
15 1 
15 1 
15 1 
15 1 
15 1 
15 1 
15 1 
15 1 
15 1 
15 1 
15 1 
15 1 
15 1 
15 1 
15 1 
15 1 
15 1 
15 1 
15 1 
15 1 
15 1 
15 1 
15 1 
15 1 
15 1 
15 1 
15 1 
15 1 
15 1 
15 1 
15 1 
15 1 
15 1 
15 1 
15 1 
15 1 
15 1 
15 1 
15 1 
15 1 
15 1 
15 1 
15 1 
15 1 
15 1 
15 1 
15 1 
15 1 
15 1 
15 1 
15 1 
15 1 
15 1 
15 1 
15 1 
15 1 
15 1 
15 1 
15 1 
15 1 
15 1 
15 1 
15 1 
15 1 
15 1 
15 1 
15 1 
15 1 
15 1 
15 1 
15 1 
15 1 
15 1 
15 1 
15 1 
15 1 
15 1 
15 1 
15 1 
15 1 
15 1 
15 1 
15 1 
15 1 
15 1 
15 1 
15 1 
15 1 
15 1 
15 1 
15 1 
15 1 
15 1 
15 1 
15 1 
15 1 
15 1 
15 1 
15 1 
15 1 
15 1 
15 1 
15 1 
15 1 
15 1 
15 1 
15 1 
15 1 
15 1 
15 1 
15 1 
15 1 
15 1 
15 1 
15 1 
15 1 
15 1 
15 1 
15 1 
15 1 
15 1 
15 1 
15 1 
15 1 
15 1 
15 1 
15 1 
15 1 
15 1 
15 1 
15 1 
15 1 
15 1 
15 1 
15 1 
15 1 
15 1 
15 1 
15 1 
15 1 
15 1 
15 1 
15 1 
15 1 
15 1 
15 1 
15 1 
15 1 
15 1 
15 1 
15 1 
15 1 
15 1 
15 1 
15 1 
15 1 
15 1 
15 1 
15 1 
15 1 
15 1 
15 1 
15 1 
15 1 
15 1 
15 1 
15 1 
15 1 
15 1 
15 1 
15 1 
15 1 
15 1 
15 1 
15 1 
15 1 
15 1 
15 1 
15 1 
15 1 
15 1 
15 1 
15 1 
15 1 
15 1 
15 1 
15 1 
15 1 
15 1 
15 1 
15 1 
15 1 
15 1 
15 1 
15 1 
15 1 
15 1 
15 1 
15 1 
15 1 
15 1 
15 1 
15 1 
15 1 
15 1 
15 1 
15 1 
15 1 
15 1 
15 1 
15 1 
15 1 
15 1 
15 1 
15 1 
15 1 
15 1 
15 1 
15 1 
15 1 
15 1 
15 1 
15 1 
15 1 
15 1 
15 1 
15 1 
15 1 
15 1 
15 1 
15 1 
15 1 
15 1 
15 1 
15 1 
15 1 
15 1 
15 1 
15 1 
15 1 
15 1 
15 1 
15 1 
15 1 
15 1 
15 1 
15 1 
15 1 
15 1 
15 1 
15 1 
15 1 
15 1 
15 1 
15 1 
15 1 
15 1 
15 1 
15 1 
15 1 
15 1 
15 1 
15 1 
15 1 
15 1 
15 1 
15 1 
15 1 
15 1 
15 1 
15 1 
15 1 
15 1 
15 1 
15 1 
15 1 
15 1 
15 1 
15 1 
15 1 
15 1 
15 1 
15 1 
15 1 
15 1 
15 1 
15 1 
15 1 
15 1 
15 1 
15 1 
15 1 
15 1 
15 1 
15 1 
15 1 
15 1 
15 1 
15 1 
15 1 
15 1 
15 1 
15 1 
15 1 
15 1 
15 1 
15 1 
15 1 
15 1 
15 1 
15 1 
15 1 
15 1 
15 1 
15 1 
15 1 
15 1 
15 1 
15 1 
15 1 
15 1 
15 1 
15 1 
15 1 
15 1 
15 1 
15 1 
15 1 
15 1 
15 1 
15 1 
15 1 
15 1 
15 1 
15 1 
15 1 
15 1 
15 1 
15 1 
15 1 
15 1 
15 1 
15 1 
15 1 
15 1 
15 1 
15 1 
15 1 
15 1 
15 1 
15 1 
15 1 
15 1 
15 1 
15 1 
15 1 
15 1 
15 1 
15 1 
15 1 
15 1 
15 1 
15 1 
15 1 
15 1 
15 1 
15 1 
15 1 
15 1 
15 1 
15 1 
15 1 
15 1 
15 1 
15 1 
15 1 
15 1 
15 1 
15 1 
15 1 
15 1 
15 1 
15 1 
15 1 
15 1 
15 1 
15 1 
15 1 
15 1 
15 1 
15 1 
15 1 
15 1 
15 1 
15 1 
15 1 
15 1 
15 1 
15 1 
15 1 
15 1 
15 1 
15 1 
15 1 
15 1 
15 1 
15 1 
15 1 
15 1 
15 1 
15 1 
15 1 
15 1 
15 1 
15 1 
15 1 
15 1 
15 1 
15 1 
15 1 
15 1 
15 1 
15 1 
15 1 
15 1 
15 1 
15 1 
15 1 
15 1 
15 1 
15 1 
15 1 
15 1 
15 1 
15 1 
15 1 
15 1 
15 1 
15 1 
15 1 
15 1 
15 1 
15 1 
15 1 
15 1 
15 1 
15 1 
15 1 
15 1 
15 1 
15 1 
15 1 
15 1 
15 1 
15 1 
15 1 
15 1 
15 1 
15 1 
15 1 
15 1 
15 1 
15 1 
15 1 
15 1 
15 1 
15 1 
15 1 
15 1 
15 1 
15 1 
15 1 
15 1 
15 1 
15 1 
15 1 
15 1 
15 1 
15 1 
15 1 
15 1 
15 1 
15 1 
15 1 
15 1 
15 1 
15 1 
15 1 
15 1 
15 1 
15 1 
15 1 
15 1 
15 1 
15 1 
15 1 
15 1 
15 1 
15 1 
15 1 
15 1 
15 1 
15 1 
15 1 
15 1 
15 1 
15 1 
15 1 
15 1 
15 1 
15 1 
15 1 
15 1 
15 1 
15 1 
15 1 
15 1 
15 1 
15 1 
15 1 
15 1 
15 1 
15 1 
15 1 
15 1 
15 1 
15 1 
15 1 
15 1 
15 1 
15 1 
15 1 
15 1 
15 1 
15 1 
15 1 
15 1 
15 1 
15 1 
15 1 
15 1 
15 1 
15 1 
15 1 
15 1 
15 1 
15 1 
15 1 
15 1 
15 1 
15 1 
15 1 
15 1 
15 1 
15 1 
15 1 
15 1 
15 1 
15 1 
15 1 
15 1 
15 1 
15 1 
15 1 
15 1 
15 1 
15 1 
15 1 
15 1 
15 1 
15 1 
15 1 
15 1 
15 1 
15 1 
15 1 
15 1 
15 1 
15 1 
15 1 
15 1 
15 1 
15 1 
15 1 
15 1 
15 1 
15 1 
15 1 
15 1 
15 1 
15 1 
15 1 
15 1 
15 1 
15 1 
15 1 
15 1 
15 1 
15 1 
15 1 
15 1 
15 1 
15 1 
15 1 
15 1 
15 1 
15 1 
15 1 
15 1 
15 1 
15 1 
15 1 
15 1 
15 1 
15 1 
15 1 
15 1 
15 1 
15 1 
15 1 
15 1 
15 1 
15 1 
15 1 
15 1 
15 1 
15 1 
15 1 
15 1 
15 1 
15 1 
15 1 
15 1 
15 1 
15 1 
15 1 
15 1 
15 1 
15 1 
15 1 
15 1 
15 1 
15 1 
15 1 
15 1 
15 1 
15 1 
15 1 
15 1 
15 1 
15 1 
15 1 
15 1 
15 1 
15 1 
15 1 
15 1 
15 1 
15 1 
15 1 
15 1 
15 1 
15 1 
15 1 
15 1 
15 1 
15 1 
15 1 
15 1 
15 1 
15 1 
15 1 
15 1 
15 1 
15 1 
15 1 
15 1 
15 1 
15 1 
15 1 
15 1 
15 1 
15 1 
15 1 
15 1 
15 1 
15 1 
15 1 
15 1 
15 1 
15 1 
15 1 
15 1 
15 1 
15 1 
15 1 
15 1 
15 1 
15 1 
15 1 
15 1 
15 1 
15 1 
15 1 
15 1 
15 1 
15 1 
15 1 
15 1 
15 1 
15 1 
15 1 
15 1 
15 1 
15 1 
15 1 
15 1 
15 1 
15 1 
15 1 
15 1 
15 1 
15 1 
15 1 
15 1 
15 1 
15 1 
15 1 
15 1 
15 1 
15 1 
15 1 
15 1 
15 1 
15 1 
15 1 
15 1 
15 1 
15 1 
15 1 
15 1 
15 1 
15 1 
15 1 
15 1 
15 1 
15 1 
15 1 
15 1 
15 1 
15 1 
15 1 
15 1 
15 1 
15 1 
15 1 
15 1 
15 1 
15 1 
15 1 
15 1 
15 1 
15 1 
15 1 
15 1 
15 1 
15 1 
15 1 
15 1 
15 1 
15 1 
15 1 
15 1 
15 1 
15 1 
15 1 
15 1 
15 1 
15 1 
15 1 
15 1 
15 1 
15 1 
15 1 
15 1 
15 1 
15 1 
15 1 
15 1 
15 1 
15 1 
15 1 
15 1 
15 1 
15 1 
15 1 
15 1 
15 1 
15 1 
15 1 
15 1 
15 1 
15 1 
15 1 
15 1 
15 1 
15 1 
15 1 
15 1 
15 1 
15 1 
15 1 
15 1 
15 1 
15 1 
15 1 
15 1 
15 1 
15 1 
15 1 
15 1 
15 1 
15 1 
15 1 
15 1 
15 1 
15 1 
15 1 
15 1 
15 1 
15 1 
15 1 
15 1 
15 1 
15 1 
15 1 
15 1 
15 1 
15 1 
15 1 
15 1 
15 1 
15 1 
15 1 
15 1 
15 1 
15 1 
15 1 
15 1 
15 1 
15 1 
15 1 
15 1 
15 1 
15 1 
15 1 
15 1 
15 1 
15 1 
15 1 
15 1 
15 1 
15 1 
15 1 
15 1 
15 1 
15 1 
15 1 
15 1 
15 1 
15 1 
15 1 
15 1 
15 1 
15 1 
15 1 
15 1 
15 1 
15 1 
15 1 
15 1 
15 1 
15 1 
15 1 
15 1 
15 1 
15 1 
15 1 
15 1 
15 1 
15 1 
15 1 
15 1 
15 1 
15 1 
15 1 
15 1 
15 1 
15 1 
15 1 
15 1 
15 1 
15 1 
15 1 
15 1 
15 1 
15 1 
15 1 
15 1 
15 1 
15 1 
15 1 
15 1 
15 1 
15 1 
15 1 
15 1 
15 1 
15 1 
15 1 
15 1 
15 1 
15 1 
15 1 
15 1 
15 1 
15 1 
15 1 
15 1 
15 1 
15 1 
15 1 
15 1 
15 1 
15 1 
15 1 
15 1 
15 1 
15 1 
15 1 
15 1 
15 1 
15 1 
15 1 
15 1 
15 1 
15 1 
15 1 
15 1 
15 1 
15 1 
15 1 
15 1 
15 1 
15 1 
15 1 
15 1 
15 1 
15 1 
15 1 
15 1 
15 1 
15 1 
15 1 
15 1 
15 1 
15 1 
15 1 
15 1 
15 1 
15 1 
15 1 
15 1 
15 1 
15 1 
15 1 
15 1 
15 1 
15 1 
15 1 
15 1 
15 1 
15 1 
15 1 
15 1 
15 1 
15 1 
15 1 
15 1 
15 1 
15 1 
15 1 
15 1 
15 1 
15 1 
15 1 
15 1 
15 1 
15 1 
15 1 
15 1 
15 1 
15 1 
15 1 
15 1 
15 1 
15 1 
15 1 
15 1 
15 1 
15 1 
15 1 
15 1 
15 1 
15 1 
15 1 
15 1 
15 1 
15 1 
15 1 
15 1 
15 1 
15 1 
15 1 
15 1 
15 1 
15 1 
15 1 
15 1 
15 1 
15 1 
15 1 
15 1 
15 1 
15 1 
15 1 
15 1 
15 1 
15 1 
15 1 
15 1 
15 1 
15 1 
15 1 
15 1 
15 1 
15 1 
15 1 
15 1 
15 1 
15 1 
15 1 
15 1 
15 1 
15 1 
15 1 
15 1 
15 1 
15 1 
15 1 
15 1 
15 1 
15 1 
15 1 
15 1 
15 1 
15 1 
15 1 
15 1 
15 1 
15 1 
15 1 
15 1 
15 1 
15 1 
15 1 
15 1 
15 1 
15 1 
15 1 
15 1 
15 1 
15 1 
15 1 
15 1 
15 1 
15 1 
15 1 
15 1 
15 1 
15 1 
15 1 
15 1 
15 1 
15 1 
15 1 
15 1 
15 1 
15 1 
15 1 
15 1 
15 1 
15 1 
15 1 
15 1 
15 1 
15 1 
15 1 
15 1 
15 1 
15 1 
15 1 
15 1 
15 1 
15 1 
15 1 
15 1 
15 1 
15 1 
15 1 
15 1 
15 1 
15 1 
15 1 
15 1 
15 1 
15 1 
15 1 
15 1 
15 1 
15 1 
15 1 
15 1 
15 1 
15 1 
15 1 
15 1 
15 1 
15 1 
15 1 
15 1 
15 1 
15 1 
15 1 
15 1 
15 1 
15 1 
15 1 
15 1 
15 1 
15 1 
15 1 
15 1 
15 1 
15 1 
15 1 
15 1 
15 1 
15 1 
15 1 
15 1 
15 1 
15 1 
15 1 
15 1 
15 1 
15 1 
15 1 
15 1 
15 1 
15 1 
15 1 
15 1 
15 1 
15 1 
15 1 
15 1 
15 1 
15 1 
15 1 
15 1 
15 1 
15 1 
15 1 
15 1 
15 1 
15 1 
15 1 
15 1 
15 1 
15 1 
15 1 
15 1 
15 1 
15 1 
15 1 
15 1 
15 1 
15 1 
15 1 
15 1 
15 1 
15 1 
15 1 
15 1 
15 1 
15 1 
15 1 
15 1 
15 1 
15 1 
15 1 
15 1 
15 1 
15 1 
15 1 
15 1 
15 1 
15 1 
15 1 
15 1 
15 1 
15 1 
15 1 
15 1 
15 1 
15 1 
15 1 
15 1 
15 1 
15 1 
15 1 
15 1 
15 1 
15 1 
15 1 
15 1 
15 1 
15 1 
15 1 
15 1 
15 1 
15 1 
15 1 
15 1 
15 1 
15 1 
15 1 
15 1 
15 1 
15 1 
15 1 
15 1 
15 1 
15 1 
15 1 
15 1 
15 1 
15 1 
15 1 
15 1 
15 1 
15 1 
15 1 
15 1 
15 1 
15 1 
15 1 
15 1 
15 1 
15 1 
15 1 
15 1 
15 1 
15 1 
15 1 
15 1 
15 1 
15 1 
15 1 
15 1 
15 1 
15 1 
15 1 
15 1 
15 1 
15 1 
15 1 
15 1 
15 1 
15 1 
15 1 
15 1 
15 1 
15 1 
15 1 
15 1 
15 1 
15 1 
15 1 
15 1 
15 1 
15 1 
15 1 
15 1 
15 1 
15 1 
15 1 
15 1 
15 1 
15 1 
15 1 
15 1 
15 1 
15 1 
15 1 
15 1 
15 1 
15 1 
15 1 
15 1 
15 1 
15 1 
15 1 
15 1 
15 1 
15 1 
15 1 
15 1 
15 1 
15 1 
15 1 
15 1 
15 1 
15 1 
15 1 
15 1 
15 1 
15 1 
15 1 
15 1 
15 1 
15 1 
15 1 
15 1 
15 1 
15 1 
15 1 
15 1 
15 1 
15 1 
15 1 
15 1 
15 1 
15 1 
15 1 
15 1 
15 1 
15 1 
15 1 
15 1 
15 1 
15 1 
15 1 
15 1 
15 1 
15 1 
15 1 
15 1 
15 1 
15 1 
15 1 
15 1 
15 1 
15 1 
15 1 
15 1 
15 1 
15 1 
15 1 
15 1 
15 1 
15 1 
15 1 
15 1 
15 1 
15 1 
15 1 
15 1 
15 1 
15 1 
15 1 
15 1 
15 1 
15 1 
15 1 
15 1 
15 1 
15 1 
15 1 
15 1 
15 1 
15 1 
15 1 
15 1 
15 1 
15 1 
15 1 
15 1 
15 1 
15 1 
15 1 
15 1 
15 1 
15 1 
15 1 
15 1 
15 1 
15 1 
15 1 
15 1 
15 1 
15 1 
15 1 
15 1 
15 1 
15 1 
15 1 
15 1 
15 1 
15 1 
15 1 
15 1 
15 1 
15 1 
15 1 
15 1 
15 1 
15 1 
15 1 
15 1 
15 1 
15 1 
15 1 
15 1 
15 1 
15 1 
15 1 
15 1 
15 1 
15 1 
15 1 
15 1 
15 1 
15 1 
15 1 
15 1 
15 1 
15 1 
15 1 
15 1 
15 1 
15 1 
15 1 
15 1 
15 1 
15 1 
15 1 
15 1 
15 1 
15 1 
15 1 
15 1 
15 1 
15 1 
15 1 
15 1 
15 1 
15 1 
15 1 
15 1 
15 1 
15 1 
15 1 
15 1 
15 1 
15 1 
15 1 
15 1 
15 1 
15 1 
15 1 
15 1 
15 1 
15 1 
15 1 
15 1 
15 1 
15 1 
15 1 
15 1 
15 1 
15 1 
15 1 
15 1 
15 1 
15 1 
15 1 
15 1 
15 1 
15 1 
15 1 
15 1 
15 1 
15 1 
15 1 
15 1 
15 1 
15 1 
15 1 
15 1 
15 1 
15 1 
15 1 
15 1 
15 1 
15 1 
15 1 
15 1 
15 1 
15 1 
15 1 
15 1 
15 1 
15 1 
15 1 
15 1 
15 1 
15 1 
15 1 
15 1 
15 1 
15 1 
15 1 
15 1 
15 1 
15 1 
15 1 
15 1 
15 1 
15 1 
15 1 
15 1 
15 1 
15 1 
15 1 
15 1 
15 1 
15 1 
15 1 
15 1 
15 1 
15 1 
15 1 
15 1 
15 1 
15 1 
15 1 
15 1 
15 1 
15 1 
15 1 
15 1 
15 1 
15 1 
15 1 
15 1 
15 1 
15 1 
15 1 
15 1 
15 1 
15 1 
15 1 
15 1 
15 1 
15 1 
15 1 
15 1 
15 1 
15 1 
15 1 
15 1 
15 1 
15 1 
15 1 
15 1 
15 1 
15 1 
15 1 
15 1 
15 1 
15 1 
15 1 
15 1 
15 1 
15 1 
15 1 
15 1 
15 1 
15 1 
15 1 
15 1 
15 1 
15 1 
15 1 
15 1 
15 1 
15 1 
15 1 
15 1 
15 1 
15 1 
15 1 
15 1 
15 1 
15 1 
15 1 
15 1 
15 1 
15 1 
15 1 
15 1 
15 1 
15 1 
15 1 
15 1 
15 1 
15 1 
15 1 
15 1 
15 1 
15 1 
15 1 
15 1 
15 1 
15 1 
15 1 
15 1 
15 1 
15 1 
15 1 
15 1 
15 1 
15 1 
15 1 
15 1 
15 1 
15 1 
15 1 
15 1 
15 1 
15 1 
15 1 
15 1 
15 1 
15 1 
15 1 
15 1 
15 1 
15 1 
15 1 
15 1 
15 1 
15 1 
15 1 
15 1 
15 1 
15 1 
15 1 
15 1 
15 1 
15 1 
15 1 
15 1 
15 1 
15 1 
15 1 
15 1 
15 1 
15 1 
15 1 
15 1 
15 1 
15 1 
15 1 
15 1 
15 1 
15 1 
15 1 
15 1 
15 1 
15 1 
15 1 
15 1 
15 1 
15 1 
15 1 
15 1 
15 1 
15 1 
15 1 
15 1 
15 1 
15 1 
15 1 
15 1 
15 1 
15 1 
15 1 
15 1 
15 1 
15 1 
15 1 
15 1 
15 1 
15 1 
15 1 
15 1 
15 1 
15 1 
15 1 
15 1 
15 1 
15 1 
15 1 
15 1 
15 1 
15 1 
15 1 
15 1 
15 1 
15 1 
15 1 
15 1 
15 1 
15 1 
15 1 
15 1 
15 1 
15 1 
15 1 
15 1 
15 1 
15 1 
15 1 
15 1 
15 1 
15 1 
15 1 
15 1 
15 1 
15 1 
15 1 
15 1 
15 1 
15 1 
15 1 
15 1 
15 1 
15 1 
15 1 
15 1 
15 1 
15 1 
15 1 
15 1 
15 1 
15 1 
15 1 
15 1 
15 1 
15 1 
15 1 
15 1 
15 1 
15 1 
15 1 
15 1 
15 1 
15 1 
15 1 
15 1 
15 1 
15 1 
15 1 
15 1 
15 1 
15 1 
15 1 
15 1 
15 1 
15 1 
15 1 
15 1 
15 1 
15 1 
15 1 
15 1 
15 1 
15 1 
15 1 
15 1 
15 1 
15 1 
15 1 
15 1 
15 1 
15 1 
15 1 
15 1 
15 1 
15 1 
15 1 
15 1 
15 1 
15 1 
15 1 
15 1 
15 1 
15 1 
15 1 
15 1 
15 1 
15 1 
15 1 
15 1 
15 1 
15 1 
15 1 
15 1 
15 1 
15 1 
15 1 
15 1 
15 1 
15 1 
15 1 
15 1 
15 1 
15 1 
15 1 
15 1 
15 1 
15 1 
15 1 
15 1 
15 1 
15 1 
15 1 
15 1 
15 1 
15 1 
15 1 
15 1 
15 1 
15 1 
15 1 
15 1 
15 1 
15 1 
15 1 
15 1 
15 1 
15 1 
15 1 
15 1 
15 1 
15 1 
15 1 
15 1 
15 1 
15 1 
15 1 
15 1 
15 1 
15 1 
15 1 
15 1 
15 1 
15 1 
15 1 
15 1 
15 1 
15 1 
15 1 
15 1 
15 1 
15 1 
15 1 
15 1 
15 1 
15 1 
15 1 
15 1 
15 1 
15 1 
15 1 
15 1 
15 1 
15 1 
15 1 
15 1 
15 1 
15 1 
15 1 
15 1 
15 1 
15 1 
15 1 
15 1 
15 1 
15 1 
15 1 
15 1 
15 1 
15 1 
15 1 
15 1 
15 1 
15 1 
15 1 
15 1 
15 1 
15 1 
15 1 
15 1 
15 1 
15 1 
15 1 
15 1 
15 1 
15 1 
15 1 
15 1 
15 1 
15 1 
15 1 
15 1 
15 1 
15 1 
15 1 
15 1 
15 1 
15 1 
15 1 
15 1 
15 1 
15 1 
15 1 
15 1 
15 1 
15 1 
15 1 
15 1 
15 1 
15 1 
15 1 
15 1 
15 1 
15 1 
15 1 
15 1 
15 1 
15 1 
15 1 
15 1 
15 1 
15 1 
15 1 
15 1 
15 1 
15 1 
15 1 
15 1 
15 1 
15 1 
15 1 
15 1 
15 1 
15 1 
15 1 
15 1 
15 1 
15 1 
15 1 
15 1 
15 1 
15 1 
15 1 
15 1 
15 1 
15 1 
15 1 
15 1 
15 1 
15 1 
15 1 
15 1 
15 1 
15 1 
15 1 
15 1 
15 1 
15 1 
15 1 
15 1 
15 1 
15 1 
15 1 
15 1 
15 1 
15 1 
15 1 
15 1 
15 1 
15 1 
15 1 
15 1 
15 1 
15 1 
15 1 
15 1 
15 1 
15 1 
15 1 
15 1 
15 1 
15 1 
15 1 
15 1 
15 1 
15 1 
15 1 
15 1 
15 1 
15 1 
15 1 
15 1 
15 1 
15 1 
15 1 
15 1 
15 1 
15 1 
15 1 
15 1 
15 1 
15 1 
15 1 
15 1 
15 1 
15 1 
15 1 
15 1 
15 1 
15 1 
15 1 
15 1 
15 1 
15 1 
15 1 
15 1 
15 1 
15 1 
15 1 
15 1 
15 1 
15 1 
15 1 
15 1 
15 1 
15 1 
15 1 
15 1 
15 1 
15 1 
15 1 
15 1 
15 1 
15 1 
15 1 
15 1 
15 1 
15 1 
15 1 
15 1 
15 1 
15 1 
15 1 
15 1 
15 1 
15 1 
15 1 
15 1 
15 1 
15 1 
15 1 
15 1 
15 1 
15 1 
15 1 
15 1 
15 1 
15 1 
15 1 
15 1 
15 1 
15 1 
15 1 
15 1 
15 1 
15 1 
15 1 
15 1 
15 1 
15 1 
15 1 
15 1 
15 1 
15 1 
15 1 
15 1 
15 1 
15 1 
15 1 
15 1 
15 1 
15 1 
15 1 
15 1 
15 1 
15 1 
15 1 
15 1 
15 1 
15 1 
15 1 
15 1 
15 1 
15 1 
15 1 
15 1 
15 1 
15 1 
15 1 
15 1 
15 1 
15 1 
15 1 
15 1 
15 1 
15 1 
15 1 
15 1 
15 1 
15 1 
15 1 
15 1 
15 1 
15 1 
15 1 
15 1 
15 1 
15 1 
15 1 
15 1 
15 1 
15 1 
15 1 
15 1 
15 1 
15 1 
15 1 
15 1 
15 1 
15 1 
15 1 
15 1 
15 1 
15 1 
15 1 
15 1 
15 1 
15 1 
15 1 
15 1 
15 1 
15 1 
15 1 
15 1 
15 1 
15 1 
15 1 
15 1 
15 1 
15 1 
15 1 
15 1 
15 1 
15 1 
15 1 
15 1 
15 1 
15 1 
15 1 
15 1 
15 1 
15 1 
15 1 
15 1 
15 1 
15 1 
15 1 
15 1 
15 1 
15 1 
15 1 
15 1 
15 1 
15 1 
15 1 
15 1 
15 1 
15 1 
15 1 
15 1 
15 1 
15 1 
15 1 
15 1 
15 1 
15 1 
15 1 
15 1 
15 1 
15 1 
15 1 
15 1 
15 1 
15 1 
15 1 
15 1 
15 1 
15 1 
15 1 
15 1 
15 1 
15 1 
15 1 
15 1 
15 1 
15 1 
15 1 
15 1 
15 1 
15 1 
15 1 
15 1 
15 1 
15 1 
15 1 
15 1 
15 1 
15 1 
15 1 
15 1 
15 1 
15 1 
15 1 
15 1 
15 1 
15 1 
15 1 
15 1 
15 1 
15 1 
15 1 
15 1 
15 1 
15 1 
15 1 
15 1 
15 1 
15 1 
15 1 
15 1 
15 1 
15 1 
15 1 
15 1 
15 1 
15 1 
15 1 
15 1 
15 1 
15 1 
15 1 
15 1 
15 1 
15 1 
15 1 
15 1 
15 1 
15 1 
15 1 
15 1 
15 1 
15 1 
15 1 
15 1 
15 1 
15 1 
15 1 
15 1 
15 1 
15 1 
15 1 
15 1 
15 1 
15 1 
15 1 
15 1 
15 1 
15 1 
15 1 
15 1 
15 1 
15 1 
15 1 
15 1 
15 1 
15 1 
15 1 
15 1 
15 1 
15 1 
15 1 
15 1 
15 1 
15 1 
15 1 
15 1 
15 1 
15 1 
15 1 
15 1 
15 1 
15 1 
15 1 
15 1 
15 1 
15 1 
15 1 
15 1 
15 1 
15 1 
15 1 
15 1 
15 1 
15 1 
15 1 
15 1 
15 1 
15 1 
15 1 
15 1 
15 1 
15 1 
15 1 
15 1 
15 1 
15 1 
15 1 
15 1 
15 1 
15 1 
15 1 
15 1 
15 1 
15 1 
15 1 
15 1 
15 1 
15 1 
15 1 
15 1 
15 1 
15 1 
15 1 
15 1 
15 1 
15 1 
15 1 
15 1 
15 1 
15 1 
15 1 
15 1 
15 1 
15 1 
15 1 
15 1 
15 1 
15 1 
15 1 
15 1 
15 1 
15 1 
15 1 
15 1 
15 1 
15 1 
15 1 
15 1 
15 1 
15 1 
15 1 
15 1 
15 1 
15 1 
15 1 
15 1 
15 1 
15 1 
15 1 
15 1 
15 1 
15 1 
15 1 
15 1 
15 1 
15 1 
15 1 
15 1 
15 1 
15 1 
15 1 
15 1 
15 1 
15 1 
15 1 
15 1 
15 1 
15 1 
15 1 
15 1 
15 1 
15 1 
15 1 
15 1 
15 1 
15 1 
15 1 
15 1 
15 1 
15 1 
15 1 
15 1 
15 1 
15 1 
15 1 
15 1 
15 1 
15 1 
15 1 
15 1 
15 1 
15 1 
15 1 
15 1 
15 1 
15 1 
15 1 
15 1 
15 1 
15 1 
15 1 
15 1 
15 1 
15 1 
15 1 
15 1 
15 1 
15 1 
15 1 
15 1 
15 1 
15 1 
15 1 
15 1 
15 1 
15 1 
15 1 
15 1 
15 1 
15 1 
15 1 
15 1 
15 1 
15 1 
15 1 
15 1 
15 1 
15 1 
15 1 
15 1 
15 1 
15 1 
15 1 
15 1 
15 1 
15 1 
15 1 
15 1 
15 1 
15 1 
15 1 
15 1 
15 1 
15 1 
15 1 
15 1 
15 1 
15 1 
15 1 
15 1 
15 1 
15 1 
15 1 
15 1 
15 1 
15 1 
15 1 
15 1 
15 1 
15 1 
15 1 
15 1 
15 1 
15 1 
15 1 
15 1 
15 1 
15 1 
15 1 
15 1 
15 1 
15 1 
15 1 
15 1 
15 1 
15 1 
15 1 
15 1 
15 1 
15 1 
15 1 
15 1 
15 1 
15 1 
15 1 
15 1 
15 1 
15 1 
15 1 
15 1 
15 1 
15 1 
15 1 
15 1 
15 1 
15 1 
15 1 
15 1 
15 1 
15 1 
15 1 
15 1 
15 1 
15 1 
15 1 
15 1 
15 1 
15 1 
15 1 
15 1 
15 1 
15 1 
15 1 
15 1 
15 1 
15 1 
15 1 
15 1 
15 1 
15 1 
15 1 
15 1 
15 1 
15 1 
15 1 
15 1 
15 1 
15 1 
15 1 
15 1 
15 1 
15 1 
15 1 
15 1 
15 1 
15 1 
15 1 
15 1 
15 1 
15 1 
15 1 
15 1 
15 1 
15 1 
15 1 
15 1 
15 1 
15 1 
15 1 
15 1 
15 1 
15 1 
15 1 
15 1 
15 1 
15 1 
15 1 
15 1 
15 1 
15 1 
15 1 
15 1 
15 1 
15 1 
15 1 
15 1 
15 1 
15 1 
15 1 
15 1 
15 1 
15 1 
15 1 
15 1 
15 1 
15 1 
15 1 
15 1 
15 1 
15 1 
15 1 
15 1 
15 1 
15 1 
15 1 
15 1 
15 1 
15 1 
15 1 
15 1 
15 1 
15 1 
15 1 
15 1 
15 1 
15 1 
15 1 
15 1 
15 1 
15 1 
15 1 
15 1 
15 1 
15 1 
15 1 
15 1 
15 1 
15 1 
15 1 
15 1 
15 1 
15 1 
15 1 
15 1 
15 1 
15 1 
15 1 
15 1 
15 1 
15 1 
15 1 
15 1 
15 1 
15 1 
15 1 
15 1 
15 1 
15 1 
15 1 
15 1 
15 1 
15 1 
15 1 
15 1 
15 1 
15 1 
15 1 
15 1 
15 1 
15 1 
15 1 
15 1 
15 1 
15 1 
15 1 
15 1 
15 1 
15 1 
15 1 
15 1 
15 1 
15 1 
15 1 
15 1 
15 1 
15 1 
15 1 
15 1 
15 1 
15 1 
15 1 
15 1 
15 1 
15 1 
15 1 
15 1 
15 1 
15 1 
15 1 
15 1 
15 1 
15 1 
15 1 
15 1 
15 1 
15 1 
15 1 
15 1 
15 1 
15 1 
15 1 
15 1 
15 1 
15 1 
15 1 
15 1 
15 1 
15 1 
15 1 
15 1 
15 1 
15 1 
15 1 
15 1 
15 1 
15 1 
15 1 
15 1 
15 1 
15 1 
15 1 
15 1 
15 1 
15 1 
15 1 
15 1 
15 1 
15 1 
15 1 
15 1 
15 1 
15 1 
15 1 
15 1 
15 1 
15 1 
15 1 
15 1 
15 1 
15 1 
15 1 
15 1 
15 1 
15 1 
15 1 
15 1 
15 1 
15 1 
15 1 
15 1 
15 1 
15 1 
15 1 
15 1 
15 1 
15 1 
15 1 
15 1 
15 1 
15 1 
15 1 
15 1 
15 1 
15 1 
15 1 
15 1 
15 1 
15 1 
15 1 
15 1 
15 1 
15 1 
15 1 
15 1 
15 1 
15 1 
15 1 
15 1 
15 1 
15 1 
15 1 
15 1 
15 1 
15 1 
15 1 
15 1 
15 1 
15 1 
15 1 
15 1 
15 1 
15 1 
15 1 
15 1 
15 1 
15 1 
15 1 
15 1 
15 1 
15 1 
15 1 
15 1 
15 1 
15 1 
15 1 
15 1 
15 1 
15 1 
15 1 
15 1 
15 1 
15 1 
15 1 
15 1 
15 1 
15 1 
15 1 
15 1 
15 1 
15 1 
15 1 
15 1 
15 1 
15 1 
15 1 
15 1 
15 1 
15 1 
15 1 
15 1 
15 1 
15 1 
15 1 
15 1 
15 1 
15 1 
15 1 
15 1 
15 1 
15 1 
15 1 
15 1 
15 1 
15 1 
15 1 
15 1 
15 1 
15 1 
15 1 
15 1 
15 1 
15 1 
15 1 
15 1 
15 1 
15 1 
15 1 
15 1 
15 1 
15 1 
15 1 
15 1 
15 1 
15 1 
15 1 
15 1 
15 1 
15 1 
15 1 
15 1 
15 1 
15 1 
15 1 
15 1 
15 1 
15 1 
15 1 
15 1 
15 1 
15 1 
15 1 
15 1 
15 1 
15 1 
15 1 
15 1 
15 1 
15 1 
15 1 
15 1 
15 1 
15 1 
15 1 
15 1 
15 1 
15 1 
15 1 
15 1 
15 1 
15 1 
15 1 
15 1 
15 1 
15 1 
15 1 
15 1 
15 1 
15 1 
15 1 
15 1 
15 1 
15 1 
15 1 
15 1 
15 1 
15 1 
15 1 
15 1 
15 1 
15 1 
15 1 
15 1 
15 1 
15 1 
15 1 
15 1 
15 1 
15 1 
15 1 
15 1 
15 1 
15 1 
15 1 
15 1 
15 1 
15 1 
15 1 
15 1 
15 1 
15 1 
15 1 
15 1 
15 1 
15 1 
15 1 
15 1 
15 1 
15 1 
15 1 
15 1 
15 1 
15 1 
15 1 
15 1 
15 1 
15 1 
15 1 
15 1 
15 1 
15 1 
15 1 
15 1 
15 1 
15 1 
15 1 
15 1 
15 1 
15 1 
15 1 
15 1 
15 1 
15 1 
15 1 
15 1 
15 1 
15 1 
15 1 
15 1 
15 1 
15 1 
15 1 
15 1 
15 1 
15 1 
15 1 
15 1 
15 1 
15 1 
15 1 
15 1 
15 1 
15 1 
15 1 
15 1 
15 1 
15 1 
15 1 
15 1 
15 1 
15 1 
15 1 
15 1 
15 1 
15 1 
15 1 
15 1 
15 1 
15 1 
15 1 
15 1 
15 1 
15 1 
15 1 
15 1 
15 1 
15 1 
15 1 
15 1 
15 1 
15 1 
15 1 
15 1 
15 1 
15 1 
15 1 
15 1 
15 1 
15 1 
15 1 
15 1 
15 1 
15 1 
15 1 
15 1 
15 1 
15 1 
15 1 
15 1 
15 1 
15 1 
15 1 
15 1 
15 1 
15 1 
15 1 
15 1 
15 1 
15 1 
15 1 
15 1 
15 1 
15 1 
15 1 
15 1 
15 1 
15 1 
15 1 
15 1 
15 1 
15 1 
15 1 
15 1 
15 1 
15 1 
15 1 
15 1 
15 1 
15 1 
15 1 
15 1 
15 1 
15 1 
15 1 
15 1 
15 1 
15 1 
15 1 
15 1 
15 1 
15 1 
15 1 
15 1 
15 1 
15 1 
15 1 
15 1 
15 1 
15 1 
15 1 
15 1 
15 1 
15 1 
15 1 
15 1 
15 1 
15 1 
15 1 
15 1 
15 1 
15 1 
15 1 
15 1 
15 1 
15 1 
15 1 
15 1 
15 1 
15 1 
15 1 
15 1 
15 1 
15 1 
15 1 
15 1 
15 1 
15 1 
15 1 
15 1 
15 1 
15 1 
15 1 
15 1 
15 1 
15 1 
15 1 
15 1 
15 1 
15 1 
15 1 
15 1 
15 1 
15 1 
15 1 
15 1 
15 1 
15 1 
15 1 
15 1 
15 1 
15 1 
15 1 
15 1 
15 1 
15 1 
15 1 
15 1 
15 1 
15 1 
15 1 
15 1 
15 1 
15 1 
15 1 
15 1 
15 1 
15 1 
15 1 
15 1 
15 1 
15 1 
15 1 
15 1 
15 1 
15 1 
15 1 
15 1 
15 1 
15 1 
15 1 
15 1 
15 1 
15 1 
15 1 
15 1 
15 1 
15 1 
15 1 
15 1 
15 1 
15 1 
15 1 
15 1 
15 1 
15 1 
15 1 
15 1 
15 1 
15 1 
15 1 
15 1 
15 1 
15 1 
15 1 
15 1 
15 1 
15 1 
15 1 
15 1 
15 1 
15 1 
15 1 
15 1 
15 1 
15 1 
15 1 
15 1 
15 1 
15 1 
15 1 
15 1 
15 1 
15 1 
15 1 
15 1 
15 1 
15 1 
15 1 
15 1 
15 1 
15 1 
15 1 
15 1 
15 1 
15 1 
15 1 
15 1 
15 1 
15 1 
15 1 
15 1 
15 1 
15 1 
15 1 
15 1 
15 1 
15 1 
15 1 
15 1 
15 1 
15 1 
15 1 
15 1 
15 1 
15 1 
15 1 
15 1 
15 1 
15 1 
15 1 
15 1 
15 1 
15 1 
15 1 
15 1 
15 1 
15 1 
15 1 
15 1 
15 1 
15 1 
15 1 
15 1 
15 1 
15 1 
15 1 
15 1 
15 1 
15 1 
15 1 
15 1 
15 1 
15 1 
15 1 
15 1 
15 1 
15 1 
15 1 
15 1 
15 1 
15 1 
15 1 
15 1 
15 1 
15 1 
15 1 
15 1 
15 1 
15 1 
15 1 
15 1 
15 1 
15 1 
15 1 
15 1 
15 1 
15 1 
15 1 
15 1 
15 1 
15 1 
15 1 
15 1 
15 1 
15 1 
15 1 
15 1 
15 1 
15 1 
15 1 
15 1 
15 1 
15 1 
15 1 
15 1 
15 1 
15 1 
15 1 
15 1 
15 1 
15 1 
15 1 
15 1 
15 1 
15 1 
15 1 
15 1 
15 1 
15 1 
15 1 
15 1 
15 1 
15 1 
15 1 
15 1 
15 1 
15 1 
15 1 
15 1 
15 1 
15 1 
15 1 
15 1 
15 1 
15 1 
15 1 
15 1 
15 1 
15 1 
15 1 
15 1 
15 1 
15 1 
15 1 
15 1 
15 1 
15 1 
15 1 
15 1 
15 1 
15 1 
15 1 
15 1 
15 1 
15 1 
15 1 
15 1 
15 1 
15 1 
15 1 
15 1 
15 1 
15 1 
15 1 
15 1 
15 1 
15 1 
15 1 
15 1 
15 1 
15 1 
15 1 
15 1 
15 1 
15 1 
15 1 
15 1 
15 1 
15 1 
15 1 
15 1 
15 1 
15 1 
15 1 
15 1 
15 1 
15 1 
15 1 
15 1 
15 1 
15 1 
15 1 
15 1 
15 1 
15 1 
15 1 
15 1 
15 1 
15 1 
15 1 
15 1 
15 1 
15 1 
15 1 
15 1 
15 1 
15 1 
15 1 
15 1 
15 1 
15 1 
15 1 
15 1 
15 1 
15 1 
15 1 
15 1 
15 1 
15 1 
15 1 
15 1 
15 1 
15 1 
15 1 
15 1 
15 1 
15 1 
15 1 
15 1 
15 1 
15 1 
15 1 
15 1 
15 1 
15 1 
15 1 
15 1 
15 1 
15 1 
15 1 
15 1 
15 1 
15 1 
15 1 
15 1 
15 1 
15 1 
15 1 
15 1 
15 1 
15 1 
15 1 
15 1 
15 1 
15 1 
15 1 
15 1 
15 1 
15 1 
15 1 
15 1 
15 1 
15 1 
15 1 
15 1 
15 1 
15 1 
15 1 
15 1 
15 1 
15 1 
15 1 
15 1 
15 1 
15 1 
15 1 
15 1 
15 1 
15 1 
15 1 
15 1 
15 1 
15 1 
15 1 
15 1 
15 1 
15 1 
15 1 
15 1 
15 1 
15 1 
15 1 
15 1 
15 1 
15 1 
15 1 
15 1 
15 1 
15 1 
15 1 
15 1 
15 1 
15 1 
15 1 
15 1 
15 1 
15 1 
15 1 
15 1 
15 1 
15 1 
15 1 
15 1 
15 1 
15 1 
15 1 
15 1 
15 1 
15 1 
15 1 
15 1 
15 1 
15 1 
15 1 
15 1 
15 1 
15 1 
15 1 
15 1 
15 1 
15 1 
15 1 
15 1 
15 1 
15 1 
15 1 
15 1 
15 1 
15 1 
15 1 
15 1 
15 1 
15 1 
15 1 
15 1 
15 1 
15 1 
15 1 
15 1 
15 1 
15 1 
15 1 
15 1 
15 1 
15 1 
15 1 
15 1 
15 1 
15 1 
15 1 
15 1 
15 1 
15 1 
15 1 
15 1 
15 1 
15 1 
15 1 
15 1 
15 1 
15 1 
15 1 
15 1 
15 1 
15 1 
15 1 
15 1 
15 1 
15 1 
15 1 
15 1 
15 1 
15 1 
15 1 
15 1 
15 1 
15 1 
15 1 
15 1 
15 1 
15 1 
15 1 
15 1 
15 1 
15 1 
15 1 
15 1 
15 1 
15 1 
15 1 
15 1 
15 1 
15 1 
15 1 
15 1 
15 1 
15 1 
15 1 
15 1 
15 1 
15 1 
15 1 
15 1 
15 1 
15 1 
15 1 
15 1 
15 1 
15 1 
15 1 
15 1 
15 1 
15 1 
15 1 
15 1 
15 1 
15 1 
15 1 
15 1 
15 1 
15 1 
15 1 
15 1 
15 1 
15 1 
15 1 
15 1 
15 1 
15 1 
15 1 
15 1 
15 1 
15 1 
15 1 
15 1 
15 1 
15 1 
15 1 
15 1 
15 1 
15 1 
15 1 
15 1 
15 1 
15 1 
15 1 
15 1 
15 1 
15 1 
15 1 
15 1 
15 1 
15 1 
15 1 
15 1 
15 1 
15 1 
15 1 
15 1 
15 1 
15 1 
15 1 
15 1 
15 1 
15 1 
15 1 
15 1 
15 1 
15 1 
15 1 
15 1 
15 1 
15 1 
15 1 
15 1 
15 1 
15 1 
15 1 
15 1 
15 1 
15 1 
15 1 
15 1 
15 1 
15 1 
15 1 
15 1 
15 1 
15 1 
15 1 
15 1 
15 1 
15 1 
15 1 
15 1 
15 1 
15 1 
15 1 
15 1 
15 1 
15 1 
15 1 
15 1 
15 1 
15 1 
15 1 
15 1 
15 1 
15 1 
15 1 
15 1 
15 1 
15 1 
15 1 
15 1 
15 1 
15 1 
15 1 
15 1 
15 1 
15 1 
15 1 
15 1 
15 1 
15 1 
15 1 
15 1 
15 1 
15 1 
15 1 
15 1 
15 1 
15 1 
15 1 
15 1 
15 1 
15 1 
15 1 
15 1 
15 1 
15 1 
15 1 
15 1 
15 1 
15 1 
15 1 
15 1 
15 1 
15 1 
15 1 
15 1 
15 1 
15 1 
15 1 
15 1 
15 1 
15 1 
15 1 
15 1 
15 1 
15 1 
15 1 
15 1 
15 1 
15 1 
15 1 
15 1 
15 1 
15 1 
15 1 
15 1 
15 1 
15 1 
15 1 
15 1 
15 1 
15 1 
15 1 
15 1 
15 1 
15 1 
15 1 
15 1 
15 1 
15 1 
15 1 
15 1 
15 1 
15 1 
15 1 
15 1 
15 1 
15 1 
15 1 
15 1 
15 1 
15 1 
15 1 
15 1 
15 1 
15 1 
15 1 
15 1 
15 1 
15 1 
15 1 
15 1 
15 1 
15 1 
15 1 
15 1 
15 1 
15 1 
15 1 
15 1 
15 1 
15 1 
15 1 
15 1 
15 1 
15 1 
15 1 
15 1 
15 1 
15 1 
15 1 
15 1 
15 1 
15 1 
15 1 
15 1 
15 1 
15 1 
15 1 
15 1 
15 1 
15 1 
15 1 
15 1 
15 1 
15 1 
15 1 
15 1 
15 1 
15 1 
15 1 
15 1 
15 1 
15 1 
15 1 
15 1 
15 1 
15 1 
15 1 
15 1 
15 1 
15 1 
15 1 
15 1 
15 1 
15 1 
15 1 
15 1 
15 1 
15 1 
15 1 
15 1 
15 1 
15 1 
15 1 
15 1 
15 1 
15 1 
15 1 
15 1 
15 1 
15 1 
15 1 
15 1 
15 1 
15 1 
15 1 
15 1 
15 1 
15 1 
15 1 
15 1 
15 1 
15 1 
15 1 
15 1 
15 1 
15 1 
15 1 
15 1 
15 1 
15 1 
15 1 
15 1 
15 1 
15 1 
15 1 
15 1 
15 1 
15 1 
15 1 
15 1 
15 1 
15 1 
15 1 
15 1 
15 1 
15 1 
15 1 
15 1 
15 1 
15 1 
15 1 
15 1 
15 1 
15 1 
15 1 
15 1 
15 1 
15 1 
15 1 
15 1 
15 1 
15 1 
15 1 
15 1 
15 1 
15 1 
15 1 
15 1 
15 1 
15 1 
15 1 
15 1 
15 1 
15 1 
15 1 
15 1 
15 1 
15 1 
15 1 
15 1 
15 1 
15 1 
15 1 
15 1 
15 1 
15 1 
15 1 
15 1 
15 1 
15 1 
15 1 
15 1 
15 1 
15 1 
15 1 
15 1 
15 1 
15 1 
15 1 
15 1 
15 1 
15 1 
15 1 
15 1 
15 1 
15 1 
15 1 
15 1 
15 1 
15 1 
15 1 
15 1 
15 1 
15 1 
15 1 
15 1 
15 1 
15 1 
15 1 
15 1 
15 1 
15 1 
15 1 
15 1 
15 1 
15 1 
15 1 
15 1 
15 1 
15 1 
15 1 
15 1 
15 1 
15 1 
15 1 
15 1 
15 1 
15 1 
15 1 
15 1 
15 1 
15 1 
15 1 
15 1 
15 1 
15 1 
15 1 
15 1 
15 1 
15 1 
15 1 
15 1 
15 1 
15 1 
15 1 
15 1 
15 1 
15 1 
15 1 
15 1 
15 1 
15 1 
15 1 
15 1 
15 1 
15 1 
15 1 
15 1 
15 1 
15 1 
15 1 
15 1 
15 1 
15 1 
15 1 
15 1 
15 1 
15 1 
15 1 
15 1 
15 1 
15 1 
15 1 
15 1 
15 1 
15 1 
15 1 
15 1 
15 1 
15 1 
15 1 
15 1 
15 1 
15 1 
15 1 
15 1 
15 1 
15 1 
15 1 
15 1 
15 1 
15 1 
15 1 
15 1 
15 1 
15 1 
15 1 
15 1 
15 1 
15 1 
15 1 
15 1 
15 1 
15 1 
15 1 
15 1 
15 1 
15 1 
15 1 
15 1 
15 1 
15 1 
15 1 
15 1 
15 1 
15 1 
15 1 
15 1 
15 1 
15 1 
15 1 
15 1 
15 1 
15 1 
15 1 
15 1 
15 1 
15 1 
15 1 
15 1 
15 1 
15 1 
15 1 
15 1 
15 1 
15 1 
15 1 
15 1 
15 1 
15 1 
15 1 
15 1 
15 1 
15 1 
15 1 
15 1 
15 1 
15 1 
15 1 
15 1 
15 1 
15 1 
15 1 
15 1 
15 1 
15 1 
15 1 
15 1 
15 1 
15 1 
15 1 
15 1 
15 1 
15 1 
15 1 
15 1 
15 1 
15 1 
15 1 
15 1 
15 1 
15 1 
15 1 
15 1 
15 1 
15 1 
15 1 
15 1 
15 1 
15 1 
15 1 
15 1 
15 1 
15 1 
15 1 
15 1 
15 1 
15 1 
15 1 
15 1 
15 1 
15 1 
15 1 
15 1 
15 1 
15 1 
15 1 
15 1 
15 1 
15 1 
15 1 
15 1 
15 1 
15 1 
15 1 
15 1 
15 1 
15 1 
15 1 
15 1 
15 1 
15 1 
15 1 
15 1 
15 1 
15 1 
15 1 
15 1 
15 1 
15 1 
15 1 
15 1 
15 1 
15 1 
15 1 
15 1 
15 1 
15 1 
15 1 
15 1 
15 1 
15 1 
15 1 
15 1 
15 1 
15 1 
15 1 
15 1 
15 1 
15 1 
15 1 
15 1 
15 1 
15 1 
15 1 
15 1 
15 1 
15 1 
15 1 
15 1 
15 1 
15 1 
15 1 
15 1 
15 1 
15 1 
15 1 
15 1 
15 1 
15 1 
15 1 
15 1 
15 1 
15 1 
15 1 
15 1 
15 1 
15 1 
15 1 
15 1 
15 1 
15 1 
15 1 
15 1 
15 1 
15 1 
15 1 
15 1 
15 1 
15 1 
15 1 
15 1 
15 1 
15 1 
15 1 
15 1 
15 1 
15 1 
15 1 
15 1 
15 1 
15 1 
15 1 
15 1 
15 1 
15 1 
15 1 
15 1 
15 1 
15 1 
15 1 
15 1 
15 1 
15 1 
15 1 
15 1 
15 1 
15 1 
15 1 
15 1 
15 1 
15 1 
15 1 
15 1 
15 1 
15 1 
15 1 
15 1 
15 1 
15 1 
15 1 
15 1 
15 1 
15 1 
15 1 
15 1 
15 1 
15 1 
15 1 
15 1 
15 1 
15 1 
15 1 
15 1 
15 1 
15 1 
15 1 
15 1 
15 1 
15 1 
15 1 
15 1 
15 1 
15 1 
15 1 
15 1 
15 1 
15 1 
15 1 
15 1 
15 1 
15 1 
15 1 
15 1 
15 1 
15 1 
15 1 
15 1 
15 1 
15 1 
15 1 
15 1 
15 1 
15 1 
15 1 
15 1 
15 1 
15 1 
15 1 
15 1 
15 1 
15 1 
15 1 
15 1 
15 1 
15 1 
15 1 
15 1 
15 1 
15 1 
15 1 
15 1 
15 1 
15 1 
15 1 
15 1 
15 1 
15 1 
15 1 
15 1 
15 1 
15 1 
15 1 
15 1 
15 1 
15 1 
15 1 
15 1 
15 1 
15 1 
15 1 
15 1 
15 1 
15 1 
15 1 
15 1 
15 1 
15 1 
15 1 
15 1 
15 1 
15 1 
15 1 
15 1 
15 1 
15 1 
15 1 
15 1 
15 1 
15 1 
15 1 
15 1 
15 1 
15 1 
15 1 
15 1 
15 1 
15 1 
15 1 
15 1 
15 1 
15 1 
15 1 
15 1 
15 1 
15 1 
15 1 
15 1 
15 1 
15 1 
15 1 
15 1 
15 1 
15 1 
15 1 
15 1 
15 1 
15 1 
15 1 
15 1 
15 1 
15 1 
15 1 
15 1 
15 1 
15 1 
15 1 
15 1 
15 1 
15 1 
15 1 
15 1 
15 1 
15 1 
15 1 
15 1 
15 1 
15 1 
15 1 
15 1 
15 1 
15 1 
15 1 
15 1 
15 1 
15 1 
15 1 
15 1 
15 1 
15 1 
15 1 
15 1 
15 1 
15 1 
15 1 
15 1 
15 1 
15 1 
15 1 
15 1 
15 1 
15 1 
15 1 
15 1 
15 1 
15 1 
15 1 
15 1 
15 1 
15 1 
15 1 
15 1 
15 1 
15 1 
15 1 
15 1 
15 1 
15 1 
15 1 
15 1 
15 1 
15 1 
15 1 
15 1 
15 1 
15 1 
15 1 
15 1 
15 1 
15 1 
15 1 
15 1 
15 1 
15 1 
15 1 
15 1 
15 1 
15 1 
15 1 
15 1 
15 1 
15 1 
15 1 
15 1 
15 1 
15 1 
15 1 
15 1 
15 1 
15 1 
15 1 
15 1 
15 1 
15 1 
15 1 
15 1 
15 1 
15 1 
15 1 
15 1 
15 1 
15 1 
15 1 
15 1 
15 1 
15 1 
15 1 
15 1 
15 1 
15 1 
15 1 
15 1 
15 1 
15 1 
15 1 
15 1 
15 1 
15 1 
15 1 
15 1 
15 1 
15 1 
15 1 
15 1 
15 1 
15 1 
15 1 
15 1 
15 1 
15 1 
15 1 
15 1 
15 1 
15 1 
15 1 
15 1 
15 1 
15 1 
15 1 
15 1 
15 1 
15 1 
15 1 
15 1 
15 1 
15 1 
15 1 
15 1 
15 1 
15 1 
15 1 
15 1 
15 1 
15 1 
15 1 
15 1 
15 1 
15 1 
15 1 
15 1 
15 1 
15 1 
15 1 
15 1 
15 1 
15 1 
15 1 
15 1 
15 1 
15 1 
15 1 
15 1 
15 1 
15 1 
15 1 
15 1 
15 1 
15 1 
15 1 
15 1 
15 1 
15 1 
15 1 
15 1 
15 1 
15 1 
15 1 
15 1 
15 1 
15 1 
15 1 
15 1 
15 1 
15 1 
15 1 
15 1 
15 1 
15 1 
15 1 
15 1 
15 1 
15 1 
15 1 
15 1 
15 1 
15 1 
15 1 
15 1 
15 1 
15 1 
15 1 
15 1 
15 1 
15 1 
15 1 
15 1 
15 1 
15 1 
15 1 
15 1 
15 1 
15 1 
15 1 
15 1 
15 1 
15 1 
15 1 
15 1 
15 1 
15 1 
15 1 
15 1 
15 1 
15 1 
15 1 
15 1 
15 1 
15 1 
15 1 
15 1 
15 1 
15 1 
15 1 
15 1 
15 1 
15 1 
15 1 
15 1 
15 1 
15 1 
15 1 
15 1 
15 1 
15 1 
15 1 
15 1 
15 1 
15 1 
15 1 
15 1 
15 1 
15 1 
15 1 
15 1 
15 1 
15 1 
15 1 
15 1 
15 1 
15 1 
15 1 
15 1 
15 1 
15 1 
15 1 
15 1 
15 1 
15 1 
15 1 
15 1 
15 1 
15 1 
15 1 
15 1 
15 1 
15 1 
15 1 
15 1 
15 1 
15 1 
15 1 
15 1 
15 1 
15 1 
15 1 
15 1 
15 1 
15 1 
15 1 
15 1 
15 1 
15 1 
15 1 
15 1 
15 1 
15 1 
15 1 
15 1 
15 1 
15 1 
15 1 
15 1 
15 1 
15 1 
15 1 
15 1 
15 1 
15 1 
15 1 
15 1 
15 1 
15 1 
15 1 
15 1 
15 1 
15 1 
15 1 
15 1 
15 1 
15 1 
15 1 
15 1 
15 1 
15 1 
15 1 
15 1 
15 1 
15 1 
15 1 
15 1 
15 1 
15 1 
15 1 
15 1 
15 1 
15 1 
15 1 
15 1 
15 1 
15 1 
15 1 
15 1 
15 1 
15 1 
15 1 
15 1 
15 1 
15 1 
15 1 
15 1 
15 1 
15 1 
15 1 
15 1 
15 1 
15 1 
15 1 
15 1 
15 1 
15 1 
15 1 
15 1 
15 1 
15 1 
15 1 
15 1 
15 1 
15 1 
15 1 
15 1 
15 1 
15 1 
15 1 
15 1 
15 1 
15 1 
15 1 
15 1 
15 1 
15 1 
15 1 
15 1 
15 1 
15 1 
15 1 
15 1 
15 1 
15 1 
15 1 
15 1 
15 1 
15 1 
15 1 
15 1 
15 1 
15 1 
15 1 
15 1 
15 1 
15 1 
15 1 
15 1 
15 1 
15 1 
15 1 
15 1 
15 1 
15 1 
15 1 
15 1 
15 1 
15 1 
15 1 
15 1 
15 1 
15 1 
15 1 
15 1 
15 1 
15 1 
15 1 
15 1 
15 1 
15 1 
15 1 
15 1 
15 1 
15 1 
15 1 
15 1 
15 1 
15 1 
15 1 
15 1 
15 1 
15 1 
15 1 
15 1 
15 1 
15 1 
15 1 
15 1 
15 1 
15 1 
15 1 
15 1 
15 1 
15 1 
15 1 
15 1 
15 1 
15 1 
15 1 
15 1 
15 1 
15 1 
15 1 
15 1 
15 1 
15 1 
15 1 
15 1 
15 1 
15 1 
15 1 
15 1 
15 1 
15 1 
15 1 
15 1 
15 1 
15 1 
15 1 
15 1 
15 1 
15 1 
15 1 
15 1 
15 1 
15 1 
15 1 
15 1 
15 1 
15 1 
15 1 
15 1 
15 1 
15 1 
15 1 
15 1 
15 1 
15 1 
15 1 
15 1 
15 1 
15 1 
15 1 
15 1 
15 1 
15 1 
15 1 
15 1 
15 1 
15 1 
15 1 
15 1 
15 1 
15 1 
15 1 
15 1 
15 1 
15 1 
15 1 
15 1 
15 1 
15 1 
15 1 
15 1 
15 1 
15 1 
15 1 
15 1 
15 1 
15 1 
15 1 
15 1 
15 1 
15 1 
15 1 
15 1 
15 1 
15 1 
15 1 
15 1 
15 1 
15 1 
15 1 
15 1 
15 1 
15 1 
15 1 
15 1 
15 1 
15 1 
15 1 
15 1 
15 1 
15 1 
15 1 
15 1 
15 1 
15 1 
15 1 
15 1 
15 1 
15 1 
15 1 
15 1 
15 1 
15 1 
15 1 
15 1 
15 1 
15 1 
15 1 
15 1 
15 1 
15 1 
15 1 
15 1 
15 1 
15 1 
15 1 
15 1 
15 1 
15 1 
15 1 
15 1 
15 1 
15 1 
15 1 
15 1 
15 1 
15 1 
15 1 
15 1 
15 1 
15 1 
15 1 
15 1 
15 1 
15 1 
15 1 
15 1 
15 1 
15 1 
15 1 
15 1 
15 1 
15 1 
15 1 
15 1 
15 1 
15 1 
15 1 
15 1 
15 1 
15 1 
15 1 
15 1 
15 1 
15 1 
15 1 
15 1 
15 1 
15 1 
15 1 
15 1 
15 1 
15 1 
15 1 
15 1 
15 1 
15 1 
15 1 
15 1 
15 1 
15 1 
15 1 
15 1 
15 1 
15 1 
15 1 
15 1 
15 1 
15 1 
15 1 
15 1 
15 1 
15 1 
15 1 
15 1 
15 1 
15 1 
15 1 
15 1 
15 1 
15 1 
15 1 
15 1 
15 1 
15 1 
15 1 
15 1 
15 1 
15 1 
15 1 
15 1 
15 1 
15 1 
15 1 
15 1 
15 1 
15 1 
15 1 
15 1 
15 1 
15 1 
15 1 
15 1 
15 1 
15 1 
15 1 
15 1 
15 1 
15 1 
15 1 
15 1 
15 1 
15 1 
15 1 
15 1 
15 1 
15 1 
15 1 
15 1 
15 1 
15 1 
15 1 
15 1 
15 1 
15 1 
15 1 
15 1 
15 1 
15 1 
15 1 
15 1 
15 1 
15 1 
15 1 
15 1 
15 1 
15 1 
15 1 
15 1 
15 1 
15 1 
15 1 
15 1 
15 1 
15 1 
15 1 
15 1 
15 1 
15 1 
15 1 
15 1 
15 1 
15 1 
15 1 
15 1 
15 1 
15 1 
15 1 
15 1 
15 1 
15 1 
15 1 
15 1 
15 1 
15 1 
15 1 
15 1 
15 1 
15 1 
15 1 
15 1 
15 1 
15 1 
15 1 
15 1 
15 1 
15 1 
15 1 
15 1 
15 1 
15 1 
15 1 
15 1 
15 1 
15 1 
15 1 
15 1 
15 1 
15 1 
15 1 
15 1 
15 1 
15 1 
15 1 
15 1 
15 1 
15 1 
15 1 
15 1 
15 1 
15 1 
15 1 
15 1 
15 1 
15 1 
15 1 
15 1 
15 1 
15 1 
15 1 
15 1 
15 1 
15 1 
15 1 
15 1 
15 1 
15 1 
15 1 
15 1 
15 1 
15 1 
15 1 
15 1 
15 1 
15 1 
15 1 
15 1 
15 1 
15 1 
15 1 
15 1 
15 1 
15 1 
15 1 
15 1 
15 1 
15 1 
15 1 
15 1 
15 1 
15 1 
15 1 
15 1 
15 1 
15 1 
15 1 
15 1 
15 1 
15 1 
15 1 
15 1 
15 1 
15 1 
15 1 
15 1 
15 1 
15 1 
15 1 
15 1 
15 1 
15 1 
15 1 
15 1 
15 1 
15 1 
15 1 
15 1 
15 1 
15 1 
15 1 
15 1 
15 1 
15 1 
15 1 
15 1 
15 1 
15 1 
15 1 
15 1 
15 1 
15 1 
15 1 
15 1 
15 1 
15 1 
15 1 
15 1 
15 1 
15 1 
15 1 
15 1 
15 1 
15 1 
15 1 
15 1 
15 1 
15 1 
15 1 
15 1 
15 1 
15 1 
15 1 
15 1 
15 1 
15 1 
15 1 
15 1 
15 1 
15 1 
15 1 
15 1 
15 1 
15 1 
15 1 
15 1 
15 1 
15 1 
15 1 
15 1 
15 1 
15 1 
15 1 
15 1 
15 1 
15 1 
15 1 
15 1 
15 1 
15 1 
15 1 
15 1 
15 1 
15 1 
15 1 
15 1 
15 1 
15 1 
15 1 
15 1 
15 1 
15 1 
15 1 
15 1 
15 1 
15 1 
15 1 
15 1 
15 1 
15 1 
15 1 
15 1 
15 1 
15 1 
15 1 
15 1 
15 1 
15 1 
15 1 
15 1 
15 1 
15 1 
15 1 
15 1 
15 1 
15 1 
15 1 
15 1 
15 1 
15 1 
15 1 
15 1 
15 1 
15 1 
15 1 
15 1 
15 1 
15 1 
15 1 
15 1 
15 1 
15 1 
15 1 
15 1 
15 1 
15 1 
15 1 
15 1 
15 1 
15 1 
15 1 
15 1 
15 1 
15 1 
15 1 
15 1 
15 1 
15 1 
15 1 
15 1 
15 1 
15 1 
15 1 
15 1 
15 1 
15 1 
15 1 
15 1 
15 1 
15 1 
15 1 
15 1 
15 1 
15 1 
15 1 
15 1 
15 1 
15 1 
15 1 
15 1 
15 1 
15 1 
15 1 
15 1 
15 1 
15 1 
15 1 
15 1 
15 1 
15 1 
15 1 
15 1 
15 1 
15 1 
15 1 
15 1 
15 1 
15 1 
15 1 
15 1 
15 1 
15 1 
15 1 
15 1 
15 1 
15 1 
15 1 
15 1 
15 1 
15 1 
15 1 
15 1 
15 1 
15 1 
15 1 
15 1 
15 1 
15 1 
15 1 
15 1 
15 1 
15 1 
15 1 
15 1 
15 1 
15 1 
15 1 
15 1 
15 1 
15 1 
15 1 
15 1 
15 1 
15 1 
15 1 
15 1 
15 1 
15 1 
15 1 
15 1 
15 1 
15 1 
15 1 
15 1 
15 1 
15 1 
15 1 
15 1 
15 1 
15 1 
15 1 
15 1 
15 1 
15 1 
15 1 
15 1 
15 1 
15 1 
15 1 
15 1 
15 1 
15 1 
15 1 
15 1 
15 1 
15 1 
15 1 
15 1 
15 1 
15 1 
15 1 
15 1 
15 1 
15 1 
15 1 
15 1 
15 1 
15 1 
15 1 
15 1 
15 1 
15 1 
15 1 
15 1 
15 1 
15 1 
15 1 
15 1 
15 1 
15 1 
15 1 
15 1 
15 1 
15 1 
15 1 
15 1 
15 1 
15 1 
15 1 
15 1 
15 1 
15 1 
15 1 
15 1 
15 1 
15 1 
15 1 
15 1 
15 1 
15 1 
15 1 
15 1 
15 1 
15 1 
15 1 
15 1 
15 1 
15 1 
15 1 
15 1 
15 1 
15 1 
15 1 
15 1 
15 1 
15 1 
15 1 
15 1 
15 1 
15 1 
15 1 
15 1 
15 1 
15 1 
15 1 
15 1 
15 1 
15 1 
15 1 
15 1 
15 1 
15 1 
15 1 
15 1 
15 1 
15 1 
15 1 
15 1 
15 1 
15 1 
15 1 
15 1 
15 1 
15 1 
15 1 
15 1 
15 1 
15 1 
15 1 
15 1 
15 1 
15 1 
15 1 
15 1 
15 1 
15 1 
15 1 
15 1 
15 1 
15 1 
15 1 
15 1 
15 1 
15 1 
15 1 
15 1 
15 1 
15 1 
15 1 
15 1 
15 1 
15 1 
15 1 
15 1 
15 1 
15 1 
15 1 
15 1 
15 1 
15 1 
15 1 
15 1 
15 1 
15 1 
15 1 
15 1 
15 1 
15 1 
15 1 
15 1 
15 1 
15 1 
15 1 
15 1 
15 1 
15 1 
15 1 
15 1 
15 1 
15 1 
15 1 
15 1 
15 1 
15 1 
15 1 
15 1 
15 1 
15 1 
15 1 
15 1 
15 1 
15 1 
15 1 
15 1 
15 1 
15 1 
15 1 
15 1 
15 1 
15 1 
15 1 
15 1 
15 1 
15 1 
15 1 
15 1 
15 1 
15 1 
15 1 
15 1 
15 1 
15 1 
15 1 
15 1 
15 1 
15 1 
15 1 
15 1 
15 1 
15 1 
15 1 
15 1 
15 1 
15 1 
15 1 
15 1 
15 1 
15 1 
15 1 
15 1 
15 1 
15 1 
15 1 
15 1 
15 1 
15 1 
15 1 
15 1 
15 1 
15 1 
15 1 
15 1 
15 1 
15 1 
15 1 
15 1 
15 1 
15 1 
15 1 
15 1 
15 1 
15 1 
15 1 
15 1 
15 1 
15 1 
15 1 
15 1 
15 1 
15 1 
15 1 
15 1 
15 1 
15 1 
15 1 
15 1 
15 1 
15 1 
15 1 
15 1 
15 1 
15 1 
15 1 
15 1 
15 1 
15 1 
15 1 
15 1 
15 1 
15 1 
15 1 
15 1 
15 1 
15 1 
15 1 
15 1 
15 1 
15 1 
15 1 
15 1 
15 1 
15 1 
15 1 
15 1 
15 1 
15 1 
15 1 
15 1 
15 1 
15 1 
15 1 
15 1 
15 1 
15 1 
15 1 
15 1 
15 1 
15 1 
15 1 
15 1 
15 1 
15 1 
15 1 
15 1 
15 1 
15 1 
15 1 
15 1 
15 1 
15 1 
15 1 
15 1 
15 1 
15 1 
15 1 
15 1 
15 1 
15 1 
15 1 
15 1 
15 1 
15 1 
15 1 
15 1 
15 1 
15 1 
15 1 
15 1 
15 1 
15 1 
15 1 
15 1 
15 1 
15 1 
15 1 
15 1 
15 1 
15 1 
15 1 
15 1 
15 1 
15 1 
15 1 
15 1 
15 1 
15 1 
15 1 
15 1 
15 1 
15 1 
15 1 
15 1 
15 1 
15 1 
15 1 
15 1 
15 1 
15 1 
15 1 
15 1 
15 1 
15 1 
15 1 
15 1 
15 1 
15 1 
15 1 
15 1 
15 1 
15 1 
15 1 
15 1 
15 1 
15 1 
15 1 
15 1 
15 1 
15 1 
15 1 
15 1 
15 1 
15 1 
15 1 
15 1 
15 1 
15 1 
15 1 
15 1 
15 1 
15 1 
15 1 
15 1 
15 1 
15 1 
15 1 
15 1 
15 1 
15 1 
15 1 
15 1 
15 1 
15 1 
15 1 
15 1 
15 1 
15 1 
15 1 
15 1 
15 1 
15 1 
15 1 
15 1 
15 1 
15 1 
15 1 
15 1 
15 1 
15 1 
15 1 
15 1 
15 1 
15 1 
15 1 
15 1 
15 1 
15 1 
15 1 
15 1 
15 1 
15 1 
15 1 
15 1 
15 1 
15 1 
15 1 
15 1 
15 1 
15 1 
15 1 
15 1 
15 1 
15 1 
15 1 
15 1 
15 1 
15 1 
15 1 
15 1 
15 1 
15 1 
15 1 
15 1 
15 1 
15 1 
15 1 
15 1 
15 1 
15 1 
15 1 
15 1 
15 1 
15 1 
15 1 
15 1 
15 1 
15 1 
15 1 
15 1 
15 1 
15 1 
15 1 
15 1 
15 1 
15 1 
15 1 
15 1 
15 1 
15 1 
15 1 
15 1 
15 1 
15 1 
15 1 
15 1 
15 1 
15 1 
15 1 
15 1 
15 1 
15 1 
15 1 
15 1 
15 1 
15 1 
15 1 
15 1 
15 1 
15 1 
15 1 
15 1 
15 1 
15 1 
15 1 
15 1 
15 1 
15 1 
15 1 
15 1 
15 1 
15 1 
15 1 
15 1 
15 1 
15 1 
15 1 
15 1 
15 1 
15 1 
15 1 
15 1 
15 1 
15 1 
15 1 
15 1 
15 1 
15 1 
15 1 
15 1 
15 1 
15 1 
15 1 
15 1 
15 1 
15 1 
15 1 
15 1 
15 1 
15 1 
15 1 
15 1 
15 1 
15 1 
15 1 
15 1 
15 1 
15 1 
15 1 
15 1 
15 1 
15 1 
15 1 
15 1 
15 1 
15 1 
15 1 
15 1 
15 1 
15 1 
15 1 
15 1 
15 1 
15 1 
15 1 
15 1 
15 1 
15 1 
15 1 
15 1 
15 1 
15 1 
15 1 
15 1 
15 1 
15 1 
15 1 
15 1 
15 1 
15 1 
15 1 
15 1 
15 1 
15 1 
15 1 
15 1 
15 1 
15 1 
15 1 
15 1 
15 1 
15 1 
15 1 
15 1 
15 1 
15 1 
15 1 
15 1 
15 1 
15 1 
15 1 
15 1 
15 1 
15 1 
15 1 
15 1 
15 1 
15 1 
15 1 
15 1 
15 1 
15 1 
15 1 
15 1 
15 1 
15 1 
15 1 
15 1 
15 1 
15 1 
15 1 
15 1 
15 1 
15 1 
15 1 
15 1 
15 1 
15 1 
15 1 
15 1 
15 1 
15 1 
15 1 
15 1 
15 1 
15 1 
15 1 
15 1 
15 1 
15 1 
15 1 
15 1 
15 1 
15 1 
15 1 
15 1 
15 1 
15 1 
15 1 
15 1 
15 1 
15 1 
15 1 
15 1 
15 1 
15 1 
15 1 
15 1 
15 1 
15 1 
15 1 
15 1 
15 1 
15 1 
15 1 
15 1 
15 1 
15 1 
15 1 
15 1 
15 1 
15 1 
15 1 
15 1 
15 1 
15 1 
15 1 
15 1 
15 1 
15 1 
15 1 
15 1 
15 1 
15 1 
15 1 
15 1 
15 1 
15 1 
15 1 
15 1 
15 1 
15 1 
15 1 
15 1 
15 1 
15 1 
15 1 
15 1 
15 1 
15 1 
15 1 
15 1 
15 1 
15 1 
15 1 
15 1 
15 1 
15 1 
15 1 
15 1 
15 1 
15 1 
15 1 
15 1 
15 1 
15 1 
15 1 
15 1 
15 1 
15 1 
15 1 
15 1 
15 1 
15 1 
15 1 
15 1 
15 1 
15 1 
15 1 
15 1 
15 1 
15 1 
15 1 
15 1 
15 1 
15 1 
15 1 
15 1 
15 1 
15 1 
15 1 
15 1 
15 1 
15 1 
15 1 
15 1 
15 1 
15 1 
15 1 
15 1 
15 1 
15 1 
15 1 
15 1 
15 1 
15 1 
15 1 
15 1 
15 1 
15 1 
15 1 
15 1 
15 1 
15 1 
15 1 
15 1 
15 1 
15 1 
15 1 
15 1 
15 1 
15 1 
15 1 
15 1 
15 1 
15 1 
15 1 
15 1 
15 1 
15 1 
15 1 
15 1 
15 1 
15 1 
15 1 
15 1 
15 1 
15 1 
15 1 
15 1 
15 1 
15 1 
15 1 
15 1 
15 1 
15 1 
15 1 
15 1 
15 1 
15 1 
15 1 
15 1 
15 1 
15 1 
15 1 
15 1 
15 1 
15 1 
15 1 
15 1 
15 1 
15 1 
15 1 
15 1 
15 1 
15 1 
15 1 
15 1 
15 1 
15 1 
15 1 
15 1 
15 1 
15 1 
15 1 
15 1 
15 1 
15 1 
15 1 
15 1 
15 1 
15 1 
15 1 
15 1 
15 1 
15 1 
15 1 
15 1 
15 1 
15 1 
15 1 
15 1 
15 1 
15 1 
15 1 
15 1 
15 1 
15 1 
15 1 
15 1 
15 1 
15 1 
15 1 
15 1 
15 1 
15 1 
15 1 
15 1 
15 1 
15 1 
15 1 
15 1 
15 1 
15 1 
15 1 
15 1 
15 1 
15 1 
15 1 
15 1 
15 1 
15 1 
15 1 
15 1 
15 1 
15 1 
15 1 
15 1 
15 1 
15 1 
15 1 
15 1 
15 1 
15 1 
15 1 
15 1 
15 1 
15 1 
15 1 
15 1 
15 1 
15 1 
15 1 
15 1 
15 1 
15 1 
15 1 
15 1 
15 1 
15 1 
15 1 
15 1 
15 1 
15 1 
15 1 
15 1 
15 1 
15 1 
15 1 
15 1 
15 1 
15 1 
15 1 
15 1 
15 1 
15 1 
15 1 
15 1 
15 1 
15 1 
15 1 
15 1 
15 1 
15 1 
15 1 
15 1 
15 1 
15 1 
15 1 
15 1 
15 1 
15 1 
15 1 
15 1 
15 1 
15 1 
15 1 
15 1 
15 1 
15 1 
15 1 
15 1 
15 1 
15 1 
15 1 
15 1 
15 1 
15 1 
15 1 
15 1 
15 1 
15 1 
15 1 
15 1 
15 1 
15 1 
15 1 
15 1 
15 1 
15 1 
15 1 
15 1 
15 1 
15 1 
15 1 
15 1 
15 1 
15 1 
15 1 
15 1 
15 1 
15 1 
15 1 
15 1 
15 1 
15 1 
15 1 
15 1 
15 1 
15 1 
15 1 
15 1 
15 1 
15 1 
15 1 
15 1 
15 1 
15 1 
15 1 
15 1 
15 1 
15 1 
15 1 
15 1 
15 1 
15 1 
15 1 
15 1 
15 1 
15 1 
15 1 
15 1 
15 1 
15 1 
15 1 
15 1 
15 1 
15 1 
15 1 
15 1 
15 1 
15 1 
15 1 
15 1 
15 1 
15 1 
15 1 
15 1 
15 1 
15 1 
15 1 
15 1 
15 1 
15 1 
15 1 
15 1 
15 1 
15 1 
15 1 
15 1 
15 1 
15 1 
15 1 
15 1 
15 1 
15 1 
15 1 
15 1 
15 1 
15 1 
15 1 
15 1 
15 1 
15 1 
15 1 
15 1 
15 1 
15 1 
15 1 
15 1 
15 1 
15 1 
15 1 
15 1 
15 1 
15 1 
15 1 
15 1 
15 1 
15 1 
15 1 
15 1 
15 1 
15 1 
15 1 
15 1 
15 1 
15 1 
15 1 
15 1 
15 1 
15 1 
15 1 
15 1 
15 1 
15 1 
15 1 
15 1 
15 1 
15 1 
15 1 
15 1 
15 1 
15 1 
15 1 
15 1 
15 1 
15 1 
15 1 
15 1 
15 1 
15 1 
15 1 
15 1 
15 1 
15 1 
15 1 
15 1 
15 1 
15 1 
15 1 
15 1 
15 1 
15 1 
15 1 
15 1 
15 1 
15 1 
15 1 
15 1 
15 1 
15 1 
15 1 
15 1 
15 1 
15 1 
15 1 
15 1 
15 1 
15 1 
15 1 
15 1 
15 1 
15 1 
15 1 
15 1 
15 1 
15 1 
15 1 
15 1 
15 1 
15 1 
15 1 
15 1 
15 1 
15 1 
15 1 
15 1 
15 1 
15 1 
15 1 
15 1 
15 1 
15 1 
15 1 
15 1 
15 1 
15 1 
15 1 
15 1 
15 1 
15 1 
15 1 
15 1 
15 1 
15 1 
15 1 
15 1 
15 1 
15 1 
15 1 
15 1 
15 1 
15 1 
15 1 
15 1 
15 1 
15 1 
15 1 
15 1 
15 1 
15 1 
15 1 
15 1 
15 1 
15 1 
15 1 
15 1 
15 1 
15 1 
15 1 
15 1 
15 1 
15 1 
15 1 
15 1 
15 1 
15 1 
15 1 
15 1 
15 1 
15 1 
15 1 
15 1 
15 1 
15 1 
15 1 
15 1 
15 1 
15 1 
15 1 
15 1 
15 1 
15 1 
15 1 
15 1 
15 1 
15 1 
15 1 
15 1 
15 1 
15 1 
15 1 
15 1 
15 1 
15 1 
15 1 
15 1 
15 1 
15 1 
15 1 
15 1 
15 1 
15 1 
15 1 
15 1 
15 1 
15 1 
15 1 
15 1 
15 1 
15 1 
15 1 
15 1 
15 1 
15 1 
15 1 
15 1 
15 1 
15 1 
15 1 
15 1 
15 1 
15 1 
15 1 
15 1 
15 1 
15 1 
15 1 
15 1 
15 1 
15 1 
15 1 
15 1 
15 1 
15 1 
15 1 
15 1 
15 1 
15 1 
15 1 
15 1 
15 1 
15 1 
15 1 
15 1 
15 1 
15 1 
15 1 
15 1 
15 1 
15 1 
15 1 
15 1 
15 1 
15 1 
15 1 
15 1 
15 1 
15 1 
15 1 
15 1 
15 1 
15 1 
15 1 
15 1 
15 1 
15 1 
15 1 
15 1 
15 1 
15 1 
15 1 
15 1 
15 1 
15 1 
15 1 
15 1 
15 1 
15 1 
15 1 
15 1 
15 1 
15 1 
15 1 
15 1 
15 1 
15 1 
15 1 
15 1 
15 1 
15 1 
15 1 
15 1 
15 1 
15 1 
15 1 
15 1 
15 1 
15 1 
15 1 
15 1 
15 1 
15 1 
15 1 
15 1 
15 1 
15 1 
15 1 
15 1 
15 1 
15 1 
15 1 
15 1 
15 1 
15 1 
15 1 
15 1 
15 1 
15 1 
15 1 
15 1 
15 1 
15 1 
15 1 
15 1 
15 1 
15 1 
15 1 
15 1 
15 1 
15 1 
15 1 
15 1 
15 1 
15 1 
15 1 
15 1 
15 1 
15 1 
15 1 
15 1 
15 1 
15 1 
15 1 
15 1 
15 1 
15 1 
15 1 
15 1 
15 1 
15 1 
15 1 
15 1 
15 1 
15 1 
15 1 
15 1 
15 1 
15 1 
15 1 
15 1 
15 1 
15 1 
15 1 
15 1 
15 1 
15 1 
15 1 
15 1 
15 1 
15 1 
15 1 
15 1 
15 1 
15 1 
15 1 
15 1 
15 1 
15 1 
15 1 
15 1 
15 1 
15 1 
15 1 
15 1 
15 1 
15 1 
15 1 
15 1 
15 1 
15 1 
15 1 
15 1 
15 1 
15 1 
15 1 
15 1 
15 1 
15 1 
15 1 
15 1 
15 1 
15 1 
15 1 
15 1 
15 1 
15 1 
15 1 
15 1 
15 1 
15 1 
15 1 
15 1 
15 1 
15 1 
15 1 
15 1 
15 1 
15 1 
15 1 
15 1 
15 1 
15 1 
15 1 
15 1 
15 1 
15 1 
15 1 
15 1 
15 1 
15 1 
15 1 
15 1 
15 1 
15 1 
15 1 
15 1 
15 1 
15 1 
15 1 
15 1 
15 1 
15 1 
15 1 
15 1 
15 1 
15 1 
15 1 
15 1 
15 1 
15 1 
15 1 
15 1 
15 1 
15 1 
15 1 
15 1 
15 1 
15 1 
15 1 
15 1 
15 1 
15 1 
15 1 
15 1 
15 1 
15 1 
15 1 
15 1 
15 1 
15 1 
15 1 
15 1 
15 1 
15 1 
15 1 
15 1 
15 1 
15 1 
15 1 
15 1 
15 1 
15 1 
15 1 
15 1 
15 1 
15 1 
15 1 
15 1 
15 1 
15 1 
15 1 
15 1 
15 1 
15 1 
15 1 
15 1 
15 1 
15 1 
15 1 
15 1 
15 1 
15 1 
15 1 
15 1 
15 1 
15 1 
15 1 
15 1 
15 1 
15 1 
15 1 
15 1 
15 1 
15 1 
15 1 
15 1 
15 1 
15 1 
15 1 
15 1 
15 1 
15 1 
15 1 
15 1 
15 1 
15 1 
15 1 
15 1 
15 1 
15 1 
15 1 
15 1 
15 1 
15 1 
15 1 
15 1 
15 1 
15 1 
15 1 
15 1 
15 1 
15 1 
15 1 
15 1 
15 1 
15 1 
15 1 
15 1 
15 1 
15 1 
15 1 
15 1 
15 1 
15 1 
15 1 
15 1 
15 1 
15 1 
15 1 
15 1 
15 1 
15 1 
15 1 
15 1 
15 1 
15 1 
15 1 
15 1 
15 1 
15 1 
15 1 
15 1 
15 1 
15 1 
15 1 
15 1 
15 1 
15 1 
15 1 
15 1 
15 1 
15 1 
15 1 
15 1 
15 1 
15 1 
15 1 
15 1 
15 1 
15 1 
15 1 
15 1 
15 1 
15 1 
15 1 
15 1 
15 1 
15 1 
15 1 
15 1 
15 1 
15 1 
15 1 
15 1 
15 1 
15 1 
15 1 
15 1 
15 1 
15 1 
15 1 
15 1 
15 1 
15 1 
15 1 
15 1 
15 1 
15 1 
15 1 
15 1 
15 1 
15 1 
15 1 
15 1 
15 1 
15 1 
15 1 
15 1 
15 1 
15 1 
15 1 
15 1 
15 1 
15 1 
15 1 
15 1 
15 1 
15 1 
15 1 
15 1 
15 1 
15 1 
15 1 
15 1 
15 1 
15 1 
15 1 
15 1 
15 1 
15 1 
15 1 
15 1 
15 1 
15 1 
15 1 
15 1 
15 1 
15 1 
15 1 
15 1 
15 1 
15 1 
15 1 
15 1 
15 1 
15 1 
15 1 
15 1 
15 1 
15 1 
15 1 
15 1 
15 1 
15 1 
15 1 
15 1 
15 1 
15 1 
15 1 
15 1 
15 1 
15 1 
15 1 
15 1 
15 1 
15 1 
15 1 
15 1 
15 1 
15 1 
15 1 
15 1 
15 1 
15 1 
15 1 
15 1 
15 1 
15 1 
15 1 
15 1 
15 1 
15 1 
15 1 
15 1 
15 1 
15 1 
15 1 
15 1 
15 1 
15 1 
15 1 
15 1 
15 1 
15 1 
15 1 
15 1 
15 1 
15 1 
15 1 
15 1 
15 1 
15 1 
15 1 
15 1 
15 1 
15 1 
15 1 
15 1 
15 1 
15 1 
15 1 
15 1 
15 1 
15 1 
15 1 
15 1 
15 1 
15 1 
15 1 
15 1 
15 1 
15 1 
15 1 
15 1 
15 1 
15 1 
15 1 
15 1 
15 1 
15 1 
15 1 
15 1 
15 1 
15 1 
15 1 
15 1 
15 1 
15 1 
15 1 
15 1 
15 1 
15 1 
15 1 
15 1 
15 1 
15 1 
15 1 
15 1 
15 1 
15 1 
15 1 
15 1 
15 1 
15 1 
15 1 
15 1 
15 1 
15 1 
15 1 
15 1 
15 1 
15 1 
15 1 
15 1 
15 1 
15 1 
15 1 
15 1 
15 1 
15 1 
15 1 
15 1 
15 1 
15 1 
15 1 
15 1 
15 1 
15 1 
15 1 
15 1 
15 1 
15 1 
15 1 
15 1 
15 1 
15 1 
15 1 
15 1 
15 1 
15 1 
15 1 
15 1 
15 1 
15 1 
15 1 
15 1 
15 1 
15 1 
15 1 
15 1 
15 1 
15 1 
15 1 
15 1 
15 1 
15 1 
15 1 
15 1 
15 1 
15 1 
15 1 
15 1 
15 1 
15 1 
15 1 
15 1 
15 1 
15 1 
15 1 
15 1 
15 1 
15 1 
15 1 
15 1 
15 1 
15 1 
15 1 
15 1 
15 1 
15 1 
15 1 
15 1 
15 1 
15 1 
15 1 
15 1 
15 1 
15 1 
15 1 
15 1 
15 1 
15 1 
15 1 
15 1 
15 1 
15 1 
15 1 
15 1 
15 1 
15 1 
15 1 
15 1 
15 1 
15 1 
15 1 
15 1 
15 1 
15 1 
15 1 
15 1 
15 1 
15 1 
15 1 
15 1 
15 1 
15 1 
15 1 
15 1 
15 1 
15 1 
15 1 
15 1 
15 1 
15 1 
15 1 
15 1 
15 1 
15 1 
15 1 
15 1 
15 1 
15 1 
15 1 
15 1 
15 1 
15 1 
15 1 
15 1 
15 1 
15 1 
15 1 
15 1 
15 1 
15 1 
15 1 
15 1 
15 1 
15 1 
15 1 
15 1 
15 1 
15 1 
15 1 
15 1 
15 1 
15 1 
15 1 
15 1 
15 1 
15 1 
15 1 
15 1 
15 1 
15 1 
15 1 
15 1 
15 1 
15 1 
15 1 
15 1 
15 1 
15 1 
15 1 
15 1 
15 1 
15 1 
15 1 
15 1 
15 1 
15 1 
15 1 
15 1 
15 1 
15 1 
15 1 
15 1 
15 1 
15 1 
15 1 
15 1 
15 1 
15 1 
15 1 
15 1 
15 1 
15 1 
15 1 
15 1 
15 1 
15 1 
15 1 
15 1 
15 1 
15 1 
15 1 
15 1 
15 1 
15 1 
15 1 
15 1 
15 1 
15 1 
15 1 
15 1 
15 1 
15 1 
15 1 
15 1 
15 1 
15 1 
15 1 
15 1 
15 1 
15 1 
15 1 
15 1 
15 1 
15 1 
15 1 
15 1 
15 1 
15 1 
15 1 
15 1 
15 1 
15 1 
15 1 
15 1 
15 1 
15 1 
15 1 
15 1 
15 1 
15 1 
15 1 
15 1 
15 1 
15 1 
15 1 
15 1 
15 1 
15 1 
15 1 
15 1 
15 1 
15 1 
15 1 
15 1 
15 1 
15 1 
15 1 
15 1 
15 1 
15 1 
15 1 
15 1 
15 1 
15 1 
15 1 
15 1 
15 1 
15 1 
15 1 
15 1 
15 1 
15 1 
15 1 
15 1 
15 1 
15 1 
15 1 
15 1 
15 1 
15 1 
15 1 
15 1 
15 1 
15 1 
15 1 
15 1 
15 1 
15 1 
15 1 
15 1 
15 1 
15 1 
15 1 
15 1 
15 1 
15 1 
15 1 
15 1 
15 1 
15 1 
15 1 
15 1 
15 1 
15 1 
15 1 
15 1 
15 1 
15 1 
15 1 
15 1 
15 1 
15 1 
15 1 
15 1 
15 1 
15 1 
15 1 
15 1 
15 1 
15 1 
15 1 
15 1 
15 1 
15 1 
15 1 
15 1 
15 1 
15 1 
15 1 
15 1 
15 1 
15 1 
15 1 
15 1 
15 1 
15 1 
15 1 
15 1 
15 1 
15 1 
15 1 
15 1 
15 1 
15 1 
15 1 
15 1 
15 1 
15 1 
15 1 
15 1 
15 1 
15 1 
15 1 
15 1 
15 1 
15 1 
15 1 
15 1 
15 1 
15 1 
15 1 
15 1 
15 1 
15 1 
15 1 
15 1 
15 1 
15 1 
15 1 
15 1 
15 1 
15 1 
15 1 
15 1 
15 1 
15 1 
15 1 
15 1 
15 1 
15 1 
15 1 
15 1 
15 1 
15 1 
15 1 
15 1 
15 1 
15 1 
15 1 
15 1 
15 1 
15 1 
15 1 
15 1 
15 1 
15 1 
15 1 
15 1 
15 1 
15 1 
15 1 
15 1 
15 1 
15 1 
15 1 
15 1 
15 1 
15 1 
15 1 
15 1 
15 1 
15 1 
15 1 
15 1 
15 1 
15 1 
15 1 
15 1 
15 1 
15 1 
15 1 
15 1 
15 1 
15 1 
15 1 
15 1 
15 1 
15 1 
15 1 
15 1 
15 1 
15 1 
15 1 
15 1 
15 1 
15 1 
15 1 
15 1 
15 1 
15 1 
15 1 
15 1 
15 1 
15 1 
15 1 
15 1 
15 1 
15 1 
15 1 
15 1 
15 1 
15 1 
15 1 
15 1 
15 1 
15 1 
15 1 
15 1 
15 1 
15 1 
15 1 
15 1 
15 1 
15 1 
15 1 
15 1 
15 1 
15 1 
15 1 
15 1 
15 1 
15 1 
15 1 
15 1 
15 1 
15 1 
15 1 
15 1 
15 1 
15 1 
15 1 
15 1 
15 1 
15 1 
15 1 
15 1 
15 1 
15 1 
15 1 
15 1 
15 1 
15 1 
15 1 
15 1 
15 1 
15 1 
15 1 
15 1 
15 1 
15 1 
15 1 
15 1 
15 1 
15 1 
15 1 
15 1 
15 1 
15 1 
15 1 
15 1 
15 1 
15 1 
15 1 
15 1 
15 1 
15 1 
15 1 
15 1 
15 1 
15 1 
15 1 
15 1 
15 1 
15 1 
15 1 
15 1 
15 1 
15 1 
15 1 
15 1 
15 1 
15 1 
15 1 
15 1 
15 1 
15 1 
15 1 
15 1 
15 1 
15 1 
15 1 
15 1 
15 1 
15 1 
15 1 
15 1 
15 1 
15 1 
15 1 
15 1 
15 1 
15 1 
15 1 
15 1 
15 1 
15 1 
15 1 
15 1 
15 1 
15 1 
15 1 
15 1 
15 1 
15 1 
15 1 
15 1 
15 1 
15 1 
15 1 
15 1 
15 1 
15 1 
15 1 
15 1 
15 1 
15 1 
15 1 
15 1 
15 1 
15 1 
15 1 
15 1 
15 1 
15 1 
15 1 
15 1 
15 1 
15 1 
15 1 
15 1 
15 1 
15 1 
15 1 
15 1 
15 1 
15 1 
15 1 
15 1 
15 1 
15 1 
15 1 
15 1 
15 1 
15 1 
15 1 
15 1 
15 1 
15 1 
15 1 
15 1 
15 1 
15 1 
15 1 
15 1 
15 1 
15 1 
15 1 
15 1 
15 1 
15 1 
15 1 
15 1 
15 1 
15 1 
15 1 
15 1 
15 1 
15 1 
15 1 
15 1 
15 1 
15 1 
15 1 
15 1 
15 1 
15 1 
15 1 
15 1 
15 1 
15 1 
15 1 
15 1 
15 1 
15 1 
15 1 
15 1 
15 1 
15 1 
15 1 
15 1 
15 1 
15 1 
15 1 
15 1 
15 1 
15 1 
15 1 
15 1 
15 1 
15 1 
15 1 
15 1 
15 1 
15 1 
15 1 
15 1 
15 1 
15 1 
15 1 
15 1 
15 1 
15 1 
15 1 
15 1 
15 1 
15 1 
15 1 
15 1 
15 1 
15 1 
15 1 
15 1 
15 1 
15 1 
15 1 
15 1 
15 1 
15 1 
15 1 
15 1 
15 1 
15 1 
15 1 
15 1 
15 1 
15 1 
15 1 
15 1 
15 1 
15 1 
15 1 
15 1 
15 1 
15 1 
15 1 
15 1 
15 1 
15 1 
15 1 
15 1 
15 1 
15 1 
15 1 
15 1 
15 1 
15 1 
15 1 
15 1 
15 1 
15 1 
15 1 
15 1 
15 1 
15 1 
15 1 
15 1 
15 1 
15 1 
15 1 
15 1 
15 1 
15 1 
15 1 
15 1 
15 1 
15 1 
15 1 
15 1 
15 1 
15 1 
15 1 
15 1 
15 1 
15 1 
15 1 
15 1 
15 1 
15 1 
15 1 
15 1 
15 1 
15 1 
15 1 
15 1 
15 1 
15 1 
15 1 
15 1 
15 1 
15 1 
15 1 
15 1 
15 1 
15 1 
15 1 
15 1 
15 1 
15 1 
15 1 
15 1 
15 1 
15 1 
15 1 
15 1 
15 1 
15 1 
15 1 
15 1 
15 1 
15 1 
15 1 
15 1 
15 1 
15 1 
15 1 
15 1 
15 1 
15 1 
15 1 
15 1 
15 1 
15 1 
15 1 
15 1 
15 1 
15 1 
15 1 
15 1 
15 1 
15 1 
15 1 
15 1 
15 1 
15 1 
15 1 
15 1 
15 1 
15 1 
15 1 
15 1 
15 1 
15 1 
15 1 
15 1 
15 1 
15 1 
15 1 
15 1 
15 1 
15 1 
15 1 
15 1 
15 1 
15 1 
15 1 
15 1 
15 1 
15 1 
15 1 
15 1 
15 1 
15 1 
15 1 
15 1 
15 1 
15 1 
15 1 
15 1 
15 1 
15 1 
15 1 
15 1 
15 1 
15 1 
15 1 
15 1 
15 1 
15 1 
15 1 
15 1 
15 1 
15 1 
15 1 
15 1 
15 1 
15 1 
15 1 
15 1 
15 1 
15 1 
15 1 
15 1 
15 1 
15 1 
15 1 
15 1 
15 1 
15 1 
15 1 
15 1 
15 1 
15 1 
15 1 
15 1 
15 1 
15 1 
15 1 
15 1 
15 1 
15 1 
15 1 
15 1 
15 1 
15 1 
15 1 
15 1 
15 1 
15 1 
15 1 
15 1 
15 1 
15 1 
15 1 
15 1 
15 1 
15 1 
15 1 
15 1 
15 1 
15 1 
15 1 
15 1 
15 1 
15 1 
15 1 
15 1 
15 1 
15 1 
15 1 
15 1 
15 1 
15 1 
15 1 
15 1 
15 1 
15 1 
15 1 
15 1 
15 1 
15 1 
15 1 
15 1 
15 1 
15 1 
15 1 
15 1 
15 1 
15 1 
15 1 
15 1 
15 1 
15 1 
15 1 
15 1 
15 1 
15 1 
15 1 
15 1 
15 1 
15 1 
15 1 
15 1 
15 1 
15 1 
15 1 
15 1 
15 1 
15 1 
15 1 
15 1 
15 1 
15 1 
15 1 
15 1 
15 1 
15 1 
15 1 
15 1 
15 1 
15 1 
15 1 
15 1 
15 1 
15 1 
15 1 
15 1 
15 1 
15 1 
15 1 
15 1 
15 1 
15 1 
15 1 
15 1 
15 1 
15 1 
15 1 
15 1 
15 1 
15 1 
15 1 
15 1 
15 1 
15 1 
15 1 
15 1 
15 1 
15 1 
15 1 
15 1 
15 1 
15 1 
15 1 
15 1 
15 1 
15 1 
15 1 
15 1 
15 1 
15 1 
15 1 
15 1 
15 1 
15 1 
15 1 
15 1 
15 1 
15 1 
15 1 
15 1 
15 1 
15 1 
15 1 
15 1 
15 1 
15 1 
15 1 
15 1 
15 1 
15 1 
15 1 
15 1 
15 1 
15 1 
15 1 
15 1 
15 1 
15 1 
15 1 
15 1 
15 1 
15 1 
15 1 
15 1 
15 1 
15 1 
15 1 
15 1 
15 1 
15 1 
15 1 
15 1 
15 1 
15 1 
15 1 
15 1 
15 1 
15 1 
15 1 
15 1 
15 1 
15 1 
15 1 
15 1 
15 1 
15 1 
15 1 
15 1 
15 1 
15 1 
15 1 
15 1 
15 1 
15 1 
15 1 
15 1 
15 1 
15 1 
15 1 
15 1 
15 1 
15 1 
15 1 
15 1 
15 1 
15 1 
15 1 
15 1 
15 1 
15 1 
15 1 
15 1 
15 1 
15 1 
15 1 
15 1 
15 1 
15 1 
15 1 
15 1 
15 1 
15 1 
15 1 
15 1 
15 1 
15 1 
15 1 
15 1 
15 1 
15 1 
15 1 
15 1 
15 1 
15 1 
15 1 
15 1 
15 1 
15 1 
15 1 
15 1 
15 1 
15 1 
15 1 
15 1 
15 1 
15 1 
15 1 
15 1 
15 1 
15 1 
15 1 
15 1 
15 1 
15 1 
15 1 
15 1 
15 1 
15 1 
15 1 
15 1 
15 1 
15 1 
15 1 
15 1 
15 1 
15 1 
15 1 
15 1 
15 1 
15 1 
15 1 
15 1 
15 1 
15 1 
15 1 
15 1 
15 1 
15 1 
15 1 
15 1 
15 1 
15 1 
15 1 
15 1 
15 1 
15 1 
15 1 
15 1 
15 1 
15 1 
15 1 
15 1 
15 1 
15 1 
15 1 
15 1 
15 1 
15 1 
15 1 
15 1 
15 1 
15 1 
15 1 
15 1 
15 1 
15 1 
15 1 
15 1 
15 1 
15 1 
15 1 
15 1 
15 1 
15 1 
15 1 
15 1 
15 1 
15 1 
15 1 
15 1 
15 1 
15 1 
15 1 
15 1 
15 1 
15 1 
15 1 
15 1 
15 1 
15 1 
15 1 
15 1 
15 1 
15 1 
15 1 
15 1 
15 1 
15 1 
15 1 
15 1 
15 1 
15 1 
15 1 
15 1 
15 1 
15 1 
15 1 
15 1 
15 1 
15 1 
15 1 
15 1 
15 1 
15 1 
15 1 
15 1 
15 1 
15 1 
15 1 
15 1 
15 1 
15 1 
15 1 
15 1 
15 1 
15 1 
15 1 
15 1 
15 1 
15 1 
15 1 
15 1 
15 1 
15 1 
15 1 
15 1 
15 1 
15 1 
15 1 
15 1 
15 1 
15 1 
15 1 
15 1 
15 1 
15 1 
15 1 
15 1 
15 1 
15 1 
15 1 
15 1 
15 1 
15 1 
15 1 
15 1 
15 1 
15 1 
15 1 
15 1 
15 1 
15 1 
15 1 
15 1 
15 1 
15 1 
15 1 
15 1 
15 1 
15 1 
15 1 
15 1 
15 1 
15 1 
15 1 
15 1 
15 1 
15 1 
15 1 
15 1 
15 1 
15 1 
15 1 
15 1 
15 1 
15 1 
15 1 
15 1 
15 1 
15 1 
15 1 
15 1 
15 1 
15 1 
15 1 
15 1 
15 1 
15 1 
15 1 
15 1 
15 1 
15 1 
15 1 
15 1 
15 1 
15 1 
15 1 
15 1 
15 1 
15 1 
15 1 
15 1 
15 1 
15 1 
15 1 
15 1 
15 1 
15 1 
15 1 
15 1 
15 1 
15 1 
15 1 
15 1 
15 1 
15 1 
15 1 
15 1 
15 1 
15 1 
15 1 
15 1 
15 1 
15 1 
15 1 
15 1 
15 1 
15 1 
15 1 
15 1 
15 1 
15 1 
15 1 
15 1 
15 1 
15 1 
15 1 
15 1 
15 1 
15 1 
15 1 
15 1 
15 1 
15 1 
15 1 
15 1 
15 1 
15 1 
15 1 
15 1 
15 1 
15 1 
15 1 
15 1 
15 1 
15 1 
15 1 
15 1 
15 1 
15 1 
15 1 
15 1 
15 1 
15 1 
15 1 
15 1 
15 1 
15 1 
15 1 
15 1 
15 1 
15 1 
15 1 
15 1 
15 1 
15 1 
15 1 
15 1 
15 1 
15 1 
15 1 
15 1 
15 1 
15 1 
15 1 
15 1 
15 1 
15 1 
15 1 
15 1 
15 1 
15 1 
15 1 
15 1 
15 1 
15 1 
15 1 
15 1 
15 1 
15 1 
15 1 
15 1 
15 1 
15 1 
15 1 
15 1 
15 1 
15 1 
15 1 
15 1 
15 1 
15 1 
15 1 
15 1 
15 1 
15 1 
15 1 
15 1 
15 1 
15 1 
15 1 
15 1 
15 1 
15 1 
15 1 
15 1 
15 1 
15 1 
15 1 
15 1 
15 1 
15 1 
15 1 
15 1 
15 1 
15 1 
15 1 
15 1 
15 1 
15 1 
15 1 
15 1 
15 1 
15 1 
15 1 
15 1 
15 1 
15 1 
15 1 
15 1 
15 1 
15 1 
15 1 
15 1 
15 1 
15 1 
15 1 
15 1 
15 1 
15 1 
15 1 
15 1 
15 1 
15 1 
15 1 
15 1 
15 1 
15 1 
15 1 
15 1 
15 1 
15 1 
15 1 
15 1 
15 1 
15 1 
15 1 
15 1 
15 1 
15 1 
15 1 
15 1 
15 1 
15 1 
15 1 
15 1 
15 1 
15 1 
15 1 
15 1 
15 1 
15 1 
15 1 
15 1 
15 1 
15 1 
15 1 
15 1 
15 1 
15 1 
15 1 
15 1 
15 1 
15 1 
15 1 
15 1 
15 1 
15 1 
15 1 
15 1 
15 1 
15 1 
15 1 
15 1 
15 1 
15 1 
15 1 
15 1 
15 1 
15 1 
15 1 
15 1 
15 1 
15 1 
15 1 
15 1 
15 1 
15 1 
15 1 
15 1 
15 1 
15 1 
15 1 
15 1 
15 1 
15 1 
15 1 
15 1 
15 1 
15 1 
15 1 
15 1 
15 1 
15 1 
15 1 
15 1 
15 1 
15 1 
15 1 
15 1 
15 1 
15 1 
15 1 
15 1 
15 1 
15 1 
15 1 
15 1 
15 1 
15 1 
15 1 
15 1 
15 1 
15 1 
15 1 
15 1 
15 1 
15 1 
15 1 
15 1 
15 1 
15 1 
15 1 
15 1 
15 1 
15 1 
15 1 
15 1 
15 1 
15 1 
15 1 
15 1 
15 1 
15 1 
15 1 
15 1 
15 1 
15 1 
15 1 
15 1 
15 1 
15 1 
15 1 
15 1 
15 1 
15 1 
15 1 
15 1 
15 1 
15 1 
15 1 
15 1 
15 1 
15 1 
15 1 
15 1 
15 1 
15 1 
15 1 
15 1 
15 1 
15 1 
15 1 
15 1 
15 1 
15 1 
15 1 
15 1 
15 1 
15 1 
15 1 
15 1 
15 1 
15 1 
15 1 
15 1 
15 1 
15 1 
15 1 
15 1 
15 1 
15 1 
15 1 
15 1 
15 1 
15 1 
15 1 
15 1 
15 1 
15 1 
15 1 
15 1 
15 1 
15 1 
15 1 
15 1 
15 1 
15 1 
15 1 
15 1 
15 1 
15 1 
15 1 
15 1 
15 1 
15 1 
15 1 
15 1 
15 1 
15 1 
15 1 
15 1 
15 1 
15 1 
15 1 
15 1 
15 1 
15 1 
15 1 
15 1 
15 1 
15 1 
15 1 
15 1 
15 1 
15 1 
15 1 
15 1 
15 1 
15 1 
15 1 
15 1 
15 1 
15 1 
15 1 
15 1 
15 1 
15 1 
15 1 
15 1 
15 1 
15 1 
15 1 
15 1 
15 1 
15 1 
15 1 
15 1 
15 1 
15 1 
15 1 
15 1 
15 1 
15 1 
15 1 
15 1 
15 1 
15 1 
15 1 
15 1 
15 1 
15 1 
15 1 
15 1 
15 1 
15 1 
15 1 
15 1 
15 1 
15 1 
15 1 
15 1 
15 1 
15 1 
15 1 
15 1 
15 1 
15 1 
15 1 
15 1 
15 1 
15 1 
15 1 
15 1 
15 1 
15 1 
15 1 
15 1 
15 1 
15 1 
15 1 
15 1 
15 1 
15 1 
15 1 
15 1 
15 1 
15 1 
15 1 
15 1 
15 1 
15 1 
15 1 
15 1 
15 1 
15 1 
15 1 
15 1 
15 1 
15 1 
15 1 
15 1 
15 1 
15 1 
15 1 
15 1 
15 1 
15 1 
15 1 
15 1 
15 1 
15 1 
15 1 
15 1 
15 1 
15 1 
15 1 
15 1 
15 1 
15 1 
15 1 
15 1 
15 1 
15 1 
15 1 
15 1 
15 1 
15 1 
15 1 
15 1 
15 1 
15 1 
15 1 
15 1 
15 1 
15 1 
15 1 
15 1 
15 1 
15 1 
15 1 
15 1 
15 1 
15 1 
15 1 
15 1 
15 1 
15 1 
15 1 
15 1 
15 1 
15 1 
15 1 
15 1 
15 1 
15 1 
15 1 
15 1 
15 1 
15 1 
15 1 
15 1 
15 1 
15 1 
15 1 
15 1 
15 1 
15 1 
15 1 
15 1 
15 1 
15 1 
15 1 
15 1 
15 1 
15 1 
15 1 
15 1 
15 1 
15 1 
15 1 
15 1 
15 1 
15 1 
15 1 
15 1 
15 1 
15 1 
15 1 
15 1 
15 1 
15 1 
15 1 
15 1 
15 1 
15 1 
15 1 
15 1 
15 1 
15 1 
15 1 
15 1 
15 1 
15 1 
15 1 
15 1 
15 1 
15 1 
15 1 
15 1 
15 1 
15 1 
15 1 
15 1 
15 1 
15 1 
15 1 
15 1 
15 1 
15 1 
15 1 
15 1 
15 1 
15 1 
15 1 
15 1 
15 1 
15 1 
15 1 
15 1 
15 1 
15 1 
15 1 
15 1 
15 1 
15 1 
15 1 
15 1 
15 1 
15 1 
15 1 
15 1 
15 1 
15 1 
15 1 
15 1 
15 1 
15 1 
15 1 
15 1 
15 1 
15 1 
15 1 
15 1 
15 1 
15 1 
15 1 
15 1 
15 1 
15 1 
15 1 
15 1 
15 1 
15 1 
15 1 
15 1 
15 1 
15 1 
15 1 
15 1 
15 1 
15 1 
15 1 
15 1 
15 1 
15 1 
15 1 
15 1 
15 1 
15 1 
15 1 
15 1 
15 1 
15 1 
15 1 
15 1 
15 1 
15 1 
15 1 
15 1 
15 1 
15 1 
15 1 
15 1 
15 1 
15 1 
15 1 
15 1 
15 1 
15 1 
15 1 
15 1 
15 1 
15 1 
15 1 
15 1 
15 1 
15 1 
15 1 
15 1 
15 1 
15 1 
15 1 
15 1 
15 1 
15 1 
15 1 
15 1 
15 1 
15 1 
15 1 
15 1 
15 1 
15 1 
15 1 
15 1 
15 1 
15 1 
15 1 
15 1 
15 1 
15 1 
15 1 
15 1 
15 1 
15 1 
15 1 
15 1 
15 1 
15 1 
15 1 
15 1 
15 1 
15 1 
15 1 
15 1 
15 1 
15 1 
15 1 
15 1 
15 1 
15 1 
15 1 
15 1 
15 1 
15 1 
15 1 
15 1 
15 1 
15 1 
15 1 
15 1 
15 1 
15 1 
15 1 
15 1 
15 1 
15 1 
15 1 
15 1 
15 1 
15 1 
15 1 
15 1 
15 1 
15 1 
15 1 
15 1 
15 1 
15 1 
15 1 
15 1 
15 1 
15 1 
15 1 
15 1 
15 1 
15 1 
15 1 
15 1 
15 1 
15 1 
15 1 
15 1 
15 1 
15 1 
15 1 
15 1 
15 1 
15 1 
15 1 
15 1 
15 1 
15 1 
15 1 
15 1 
15 1 
15 1 
15 1 
15 1 
15 1 
15 1 
15 1 
15 1 
15 1 
15 1 
15 1 
15 1 
15 1 
15 1 
15 1 
15 1 
15 1 
15 1 
15 1 
15 1 
15 1 
15 1 
15 1 
15 1 
15 1 
15 1 
15 1 
15 1 
15 1 
15 1 
15 1 
15 1 
15 1 
15 1 
15 1 
15 1 
15 1 
15 1 
15 1 
15 1 
15 1 
15 1 
15 1 
15 1 
15 1 
15 1 
15 1 
15 1 
15 1 
15 1 
15 1 
15 1 
15 1 
15 1 
15 1 
15 1 
15 1 
15 1 
15 1 
15 1 
15 1 
15 1 
15 1 
15 1 
15 1 
15 1 
15 1 
15 1 
15 1 
15 1 
15 1 
15 1 
15 1 
15 1 
15 1 
15 1 
15 1 
15 1 
15 1 
15 1 
15 1 
15 1 
15 1 
15 1 
15 1 
15 1 
15 1 
15 1 
15 1 
15 1 
15 1 
15 1 
15 1 
15 1 
15 1 
15 1 
15 1 
15 1 
15 1 
15 1 
15 1 
15 1 
15 1 
15 1 
15 1 
15 1 
15 1 
15 1 
15 1 
15 1 
15 1 
15 1 
15 1 
15 1 
15 1 
15 1 
15 1 
15 1 
15 1 
15 1 
15 1 
15 1 
15 1 
15 1 
15 1 
15 1 
15 1 
15 1 
15 1 
15 1 
15 1 
15 1 
15 1 
15 1 
15 1 
15 1 
15 1 
15 1 
15 1 
15 1 
15 1 
15 1 
15 1 
15 1 
15 1 
15 1 
15 1 
15 1 
15 1 
15 1 
15 1 
15 1 
15 1 
15 1 
15 1 
15 1 
15 1 
15 1 
15 1 
15 1 
15 1 
15 1 
15 1 
15 1 
15 1 
15 1 
15 1 
15 1 
15 1 
15 1 
15 1 
15 1 
15 1 
15 1 
15 1 
15 1 
15 1 
15 1 
15 1 
15 1 
15 1 
15 1 
15 1 
15 1 
15 1 
15 1 
15 1 
15 1 
15 1 
15 1 
15 1 
15 1 
15 1 
15 1 
15 1 
15 1 
15 1 
15 1 
15 1 
15 1 
15 1 
15 1 
15 1 
15 1 
15 1 
15 1 
15 1 
15 1 
15 1 
15 1 
15 1 
15 1 
15 1 
15 1 
15 1 
15 1 
15 1 
15 1 
15 1 
15 1 
15 1 
15 1 
15 1 
15 1 
15 1 
15 1 
15 1 
15 1 
15 1 
15 1 
15 1 
15 1 
15 1 
15 1 
15 1 
15 1 
15 1 
15 1 
15 1 
15 1 
15 1 
15 1 
15 1 
15 1 
15 1 
15 1 
15 1 
15 1 
15 1 
15 1 
15 1 
15 1 
15 1 
15 1 
15 1 
15 1 
15 1 
15 1 
15 1 
15 1 
15 1 
15 1 
15 1 
15 1 
15 1 
15 1 
15 1 
15 1 
15 1 
15 1 
15 1 
15 1 
15 1 
15 1 
15 1 
15 1 
15 1 
15 1 
15 1 
15 1 
15 1 
15 1 
15 1 
15 1 
15 1 
15 1 
15 1 
15 1 
15 1 
15 1 
15 1 
15 1 
15 1 
15 1 
15 1 
15 1 
15 1 
15 1 
15 1 
15 1 
15 1 
15 1 
15 1 
15 1 
15 1 
15 1 
15 1 
15 1 
15 1 
15 1 
15 1 
15 1 
15 1 
15 1 
15 1 
15 1 
15 1 
15 1 
15 1 
15 1 
15 1 
15 1 
15 1 
15 1 
15 1 
15 1 
15 1 
15 1 
15 1 
15 1 
15 1 
15 1 
15 1 
15 1 
15 1 
15 1 
15 1 
15 1 
15 1 
15 1 
15 1 
15 1 
15 1 
15 1 
15 1 
15 1 
15 1 
15 1 
15 1 
15 1 
15 1 
15 1 
15 1 
15 1 
15 1 
15 1 
15 1 
15 1 
15 1 
15 1 
15 1 
15 1 
15 1 
15 1 
15 1 
15 1 
15 1 
15 1 
15 1 
15 1 
15 1 
15 1 
15 1 
15 1 
15 1 
15 1 
15 1 
15 1 
15 1 
15 1 
15 1 
15 1 
15 1 
15 1 
15 1 
15 1 
15 1 
15 1 
15 1 
15 1 
15 1 
15 1 
15 1 
15 1 
15 1 
15 1 
15 1 
15 1 
15 1 
15 1 
15 1 
15 1 
15 1 
15 1 
15 1 
15 1 
15 1 
15 1 
15 1 
15 1 
15 1 
15 1 
15 1 
15 1 
15 1 
15 1 
15 1 
15 1 
15 1 
15 1 
15 1 
15 1 
15 1 
15 1 
15 1 
15 1 
15 1 
15 1 
15 1 
15 1 
15 1 
15 1 
15 1 
15 1 
15 1 
15 1 
15 1 
15 1 
15 1 
15 1 
15 1 
15 1 
15 1 
15 1 
15 1 
15 1 
15 1 
15 1 
15 1 
15 1 
15 1 
15 1 
15 1 
15 1 
15 1 
15 1 
15 1 
15 1 
15 1 
15 1 
15 1 
15 1 
15 1 
15 1 
15 1 
15 1 
15 1 
15 1 
15 1 
15 1 
15 1 
15 1 
15 1 
15 1 
15 1 
15 1 
15 1 
15 1 
15 1 
15 1 
15 1 
15 1 
15 1 
15 1 
15 1 
15 1 
15 1 
15 1 
15 1 
15 1 
15 1 
15 1 
15 1 
15 1 
15 1 
15 1 
15 1 
15 1 
15 1 
15 1 
15 1 
15 1 
15 1 
15 1 
15 1 
15 1 
15 1 
15 1 
15 1 
15 1 
15 1 
15 1 
15 1 
15 1 
15 1 
15 1 
15 1 
15 1 
15 1 
15 1 
15 1 
15 1 
15 1 
15 1 
15 1 
15 1 
15 1 
15 1 
15 1 
15 1 
15 1 
15 1 
15 1 
15 1 
15 1 
15 1 
15 1 
15 1 
15 1 
15 1 
15 1 
15 1 
15 1 
15 1 
15 1 
15 1 
15 1 
15 1 
15 1 
15 1 
15 1 
15 1 
15 1 
15 1 
15 1 
15 1 
15 1 
15 1 
15 1 
15 1 
15 1 
15 1 
15 1 
15 1 
15 1 
15 1 
15 1 
15 1 
15 1 
15 1 
15 1 
15 1 
15 1 
15 1 
15 1 
15 1 
15 1 
15 1 
15 1 
15 1 
15 1 
15 1 
15 1 
15 1 
15 1 
15 1 
15 1 
15 1 
15 1 
15 1 
15 1 
15 1 
15 1 
15 1 
15 1 
15 1 
15 1 
15 1 
15 1 
15 1 
15 1 
15 1 
15 1 
15 1 
15 1 
15 1 
15 1 
15 1 
15 1 
15 1 
15 1 
15 1 
15 1 
15 1 
15 1 
15 1 
15 1 
15 1 
15 1 
15 1 
15 1 
15 1 
15 1 
15 1 
15 1 
15 1 
15 1 
15 1 
15 1 
15 1 
15 1 
15 1 
15 1 
15 1 
15 1 
15 1 
15 1 
15 1 
15 1 
15 1 
15 1 
15 1 
15 1 
15 1 
15 1 
15 1 
15 1 
15 1 
15 1 
15 1 
15 1 
15 1 
15 1 
15 1 
15 1 
15 1 
15 1 
15 1 
15 1 
15 1 
15 1 
15 1 
15 1 
15 1 
15 1 
15 1 
15 1 
15 1 
15 1 
15 1 
15 1 
15 1 
15 1 
15 1 
15 1 
15 1 
15 1 
15 1 
15 1 
15 1 
15 1 
15 1 
15 1 
15 1 
15 1 
15 1 
15 1 
15 1 
15 1 
15 1 
15 1 
15 1 
15 1 
15 1 
15 1 
15 1 
15 1 
15 1 
15 1 
15 1 
15 1 
15 1 
15 1 
15 1 
15 1 
15 1 
15 1 
15 1 
15 1 
15 1 
15 1 
15 1 
15 1 
15 1 
15 1 
15 1 
15 1 
15 1 
15 1 
15 1 
15 1 
15 1 
15 1 
15 1 
15 1 
15 1 
15 1 
15 1 
15 1 
15 1 
15 1 
15 1 
15 1 
15 1 
15 1 
15 1 
15 1 
15 1 
15 1 
15 1 
15 1 
15 1 
15 1 
15 1 
15 1 
15 1 
15 1 
15 1 
15 1 
15 1 
15 1 
15 1 
15 1 
15 1 
15 1 
15 1 
15 1 
15 1 
15 1 
15 1 
15 1 
15 1 
15 1 
15 1 
15 1 
15 1 
15 1 
15 1 
15 1 
15 1 
15 1 
15 1 
15 1 
15 1 
15 1 
15 1 
15 1 
15 1 
15 1 
15 1 
15 1 
15 1 
15 1 
15 1 
15 1 
15 1 
15 1 
15 1 
15 1 
15 1 
15 1 
15 1 
15 1 
15 1 
15 1 
15 1 
15 1 
15 1 
15 1 
15 1 
15 1 
15 1 
15 1 
15 1 
15 1 
15 1 
15 1 
15 1 
15 1 
15 1 
15 1 
15 1 
15 1 
15 1 
15 1 
15 1 
15 1 
15 1 
15 1 
15 1 
15 1 
15 1 
15 1 
15 1 
15 1 
15 1 
15 1 
15 1 
15 1 
15 1 
15 1 
15 1 
15 1 
15 1 
15 1 
15 1 
15 1 
15 1 
15 1 
15 1 
15 1 
15 1 
15 1 
15 1 
15 1 
15 1 
15 1 
15 1 
15 1 
15 1 
15 1 
15 1 
15 1 
15 1 
15 1 
15 1 
15 1 
15 1 
15 1 
15 1 
15 1 
15 1 
15 1 
15 1 
15 1 
15 1 
15 1 
15 1 
15 1 
15 1 
15 1 
15 1 
15 1 
15 1 
15 1 
15 1 
15 1 
15 1 
15 1 
15 1 
15 1 
15 1 
15 1 
15 1 
15 1 
15 1 
15 1 
15 1 
15 1 
15 1 
15 1 
15 1 
15 1 
15 1 
15 1 
15 1 
15 1 
15 1 
15 1 
15 1 
15 1 
15 1 
15 1 
15 1 
15 1 
15 1 
15 1 
15 1 
15 1 
15 1 
15 1 
15 1 
15 1 
15 1 
15 1 
15 1 
15 1 
15 1 
15 1 
15 1 
15 1 
15 1 
15 1 
15 1 
15 1 
15 1 
15 1 
15 1 
15 1 
15 1 
15 1 
15 1 
15 1 
15 1 
15 1 
15 1 
15 1 
15 1 
15 1 
15 1 
15 1 
15 1 
15 1 
15 1 
15 1 
15 1 
15 1 
15 1 
15 1 
15 1 
15 1 
15 1 
15 1 
15 1 
15 1 
15 1 
15 1 
15 1 
15 1 
15 1 
15 1 
15 1 
15 1 
15 1 
15 1 
15 1 
15 1 
15 1 
15 1 
15 1 
15 1 
15 1 
15 1 
15 1 
15 1 
15 1 
15 1 
15 1 
15 1 
15 1 
15 1 
15 1 
15 1 
15 1 
15 1 
15 1 
15 1 
15 1 
15 1 
15 1 
15 1 
15 1 
15 1 
15 1 
15 1 
15 1 
15 1 
15 1 
15 1 
15 1 
15 1 
15 1 
15 1 
15 1 
15 1 
15 1 
15 1 
15 1 
15 1 
15 1 
15 1 
15 1 
15 1 
15 1 
15 1 
15 1 
15 1 
15 1 
15 1 
15 1 
15 1 
15 1 
15 1 
15 1 
15 1 
15 1 
15 1 
15 1 
15 1 
15 1 
15 1 
15 1 
15 1 
15 1 
15 1 
15 1 
15 1 
15 1 
15 1 
15 1 
15 1 
15 1 
15 1 
15 1 
15 1 
15 1 
15 1 
15 1 
15 1 
15 1 
15 1 
15 1 
15 1 
15 1 
15 1 
15 1 
15 1 
15 1 
15 1 
15 1 
15 1 
15 1 
15 1 
15 1 
15 1 
15 1 
15 1 
15 1 
15 1 
15 1 
15 1 
15 1 
15 1 
15 1 
15 1 
15 1 
15 1 
15 1 
15 1 
15 1 
15 1 
15 1 
15 1 
15 1 
15 1 
15 1 
15 1 
15 1 
15 1 
15 1 
15 1 
15 1 
15 1 
15 1 
15 1 
15 1 
15 1 
15 1 
15 1 
15 1 
15 1 
15 1 
15 1 
15 1 
15 1 
15 1 
15 1 
[...]
4 12 
4 12 
4 12 
4 12 
4 12 
4 12 
4 12 
4 12 
4 12 
4 12 
4 12 
4 12 
4 12 
4 12 
4 12 
4 12 
4 12 
4 12 
4 12 
4 12 
4 12 
4 12 
4 12 
4 12 
4 12 
4 12 
4 12 
4 12 
4 12 
4 12 
4 12 
4 12 
4 12 
4 12 
4 12 
4 12 
4 12 
4 12 
4 12 
4 12 
4 12 
4 12 
4 12 
4 12 
4 12 
4 12 
4 12 
4 12 
4 12 
4 12 
4 12 
4 12 
4 12 
4 12 
4 12 
4 12 
4 12 
4 12 
4 12 
4 12 
4 12 
4 12 
4 12 
4 12 
4 12 
4 12 
4 12 
4 12 
4 12 
4 12 
4 12 
4 12 
4 12 
4 12 
4 12 
4 12 
4 12 
4 12 
4 12 
4 12 
4 12 
4 12 
4 12 
4 12 
4 12 
4 12 
4 12 
4 12 
4 12 
4 12 
4 12 
4 12 
4 12 
4 12 
4 12 
4 12 
4 12 
4 12 
4 12 
4 12 
4 12 
4 12 
4 12 
4 12 
4 12 
4 12 
4 12 
4 12 
4 12 
4 12 
4 12 
4 12 
4 12 
4 12 
4 12 
4 12 
4 12 
4 12 
4 12 
4 12 
4 12 
4 12 
4 12 
4 12 
4 12 
4 12 
4 12 
4 12 
4 12 
4 12 
4 12 
4 12 
4 12 
4 12 
4 12 
4 12 
4 12 
4 12 
4 12 
4 12 
4 12 
4 12 
4 12 
4 12 
4 12 
4 12 
4 12 
4 12 
4 12 
4 12 
4 12 
4 12 
4 12 
4 12 
4 12 
4 12 
4 12 
4 12 
4 12 
4 12 
4 12 
4 12 
4 12 
4 12 
4 12 
4 12 
4 12 
4 12 
4 12 
4 12 
4 12 
4 12 
4 12 
4 12 
4 12 
4 12 
4 12 
4 12 
4 12 
4 12 
4 12 
4 12 
4 12 
4 12 
4 12 
4 12 
4 12 
4 12 
4 12 
4 12 
4 12 
4 12 
4 12 
4 12 
4 12 
4 12 
4 12 
4 12 
4 12 
4 12 
4 12 
4 12 
4 12 
4 12 
4 12 
4 12 
4 12 
4 12 
4 12 
4 12 
4 12 
4 12 
4 12 
4 12 
4 12 
4 12 
4 12 
4 12 
4 12 
4 12 
4 12 
4 12 
4 12 
4 12 
4 12 
4 12 
4 12 
4 12 
4 12 
4 12 
4 12 
4 12 
4 12 
4 12 
4 12 
4 12 
4 12 
4 12 
4 12 
4 12 
4 12 
4 12 
4 12 
4 12 
4 12 
4 12 
4 12 
4 12 
4 12 
4 12 
4 12 
4 12 
4 12 
4 12 
4 12 
4 12 
4 12 
4 12 
4 12 
4 12 
4 12 
4 12 
4 12 
4 12 
4 12 
4 12 
4 12 
4 12 
4 12 
4 12 
4 12 
4 12 
4 12 
4 12 
4 12 
4 12 
4 12 
4 12 
4 12 
4 12 
4 12 
4 12 
4 12 
4 12 
4 12 
4 12 
4 12 
4 12 
4 12 
4 12 
4 12 
4 12 
4 12 
4 12 
4 12 
4 12 
4 12 
4 12 
4 12 
4 12 
4 12 
4 12 
4 12 
4 12 
4 12 
4 12 
4 12 
4 12 
4 12 
4 12 
4 12 
4 12 
4 12 
4 12 
4 12 
4 12 
4 12 
4 12 
4 12 
4 12 
4 12 
4 12 
4 12 
4 12 
4 12 
4 12 
4 12 
4 12 
4 12 
4 12 
4 12 
4 12 
4 12 
4 12 
4 12 
4 12 
4 12 
4 12 
4 12 
4 12 
4 12 
4 12 
4 12 
4 12 
4 12 
4 12 
4 12 
4 12 
4 12 
4 12 
4 12 
4 12 
4 12 
4 12 
4 12 
4 12 
4 12 
4 12 
4 12 
4 12 
4 12 
4 12 
4 12 
4 12 
4 12 
4 12 
4 12 
4 12 
4 12 
4 12 
4 12 
4 12 
4 12 
4 12 
4 12 
4 12 
4 12 
4 12 
4 12 
4 12 
4 12 
4 12 
4 12 
4 12 
4 12 
4 12 
4 12 
4 12 
4 12 
4 12 
4 12 
4 12 
4 12 
4 12 
4 12 
4 12 
4 12 
4 12 
4 12 
4 12 
4 12 
4 12 
4 12 
4 12 
4 12 
4 12 
4 12 
4 12 
4 12 
4 12 
4 12 
4 12 
4 12 
4 12 
4 12 
4 12 
4 12 
4 12 
4 12 
4 12 
4 12 
4 12 
4 12 
4 12 
4 12 
4 12 
4 12 
4 12 
4 12 
4 12 
4 12 
4 12 
4 12 
4 12 
4 12 
4 12 
4 12 
4 12 
4 12 
4 12 
4 12 
4 12 
4 12 
4 12 
4 12 
4 12 
4 12 
4 12 
4 12 
4 12 
4 12 
4 12 
4 12 
4 12 
4 12 
4 12 
4 12 
4 12 
4 12 
4 12 
4 12 
4 12 
4 12 
4 12 
4 12 
4 12 
4 12 
4 12 
4 12 
4 12 
4 12 
4 12 
4 12 
4 12 
4 12 
4 12 
4 12 
4 12 
4 12 
4 12 
4 12 
4 12 
4 12 
4 12 
4 12 
4 12 
4 12 
4 12 
4 12 
4 12 
4 12 
4 12 
4 12 
4 12 
4 12 
4 12 
4 12 
4 12 
4 12 
4 12 
4 12 
4 12 
4 12 
4 12 
4 12 
4 12 
4 12 
4 12 
4 12 
4 12 
4 12 
4 12 
4 12 
4 12 
4 12 
4 12 
4 12 
4 12 
4 12 
4 12 
4 12 
4 12 
4 12 
4 12 
4 12 
4 12 
4 12 
4 12 
4 12 
4 12 
4 12 
4 12 
4 12 
4 12 
4 12 
4 12 
4 12 
4 12 
4 12 
4 12 
4 12 
4 12 
4 12 
4 12 
4 12 
4 12 
4 12 
4 12 
4 12 
4 12 
4 12 
4 12 
4 12 
4 12 
4 12 
4 12 
4 12 
4 12 
4 12 
4 12 
4 12 
4 12 
4 12 
4 12 
4 12 
4 12 
4 12 
4 12 
4 12 
4 12 
4 12 
4 12 
4 12 
4 12 
4 12 
4 12 
4 12 
4 12 
4 12 
4 12 
4 12 
4 12 
4 12 
4 12 
4 12 
4 12 
4 12 
4 12 
4 12 
4 12 
4 12 
4 12 
4 12 
4 12 
4 12 
4 12 
4 12 
4 12 
4 12 
4 12 
4 12 
4 12 
4 12 
4 12 
4 12 
4 12 
4 12 
4 12 
4 12 
4 12 
4 12 
4 12 
4 12 
4 12 
4 12 
4 12 
4 12 
4 12 
4 12 
4 12 
4 12 
4 12 
4 12 
4 12 
4 12 
4 12 
4 12 
4 12 
4 12 
4 12 
4 12 
4 12 
4 12 
4 12 
4 12 
4 12 
4 12 
4 12 
4 12 
4 12 
4 12 
4 12 
4 12 
4 12 
4 12 
4 12 
4 12 
4 12 
4 12 
4 12 
4 12 
4 12 
4 12 
4 12 
4 12 
4 12 
4 12 
4 12 
4 12 
4 12 
4 12 
4 12 
4 12 
4 12 
4 12 
4 12 
4 12 
4 12 
4 12 
4 12 
4 12 
4 12 
4 12 
4 12 
4 12 
4 12 
4 12 
4 12 
4 12 
4 12 
4 12 
4 12 
4 12 
4 12 
4 12 
4 12 
4 12 
4 12 
4 12 
4 12 
4 12 
4 12 
4 12 
4 12 
4 12 
4 12 
4 12 
4 12 
4 12 
4 12 
4 12 
4 12 
4 12 
4 12 
4 12 
4 12 
4 12 
4 12 
4 12 
4 12 
4 12 
4 12 
4 12 
4 12 
4 12 
4 12 
4 12 
4 12 
4 12 
4 12 
4 12 
4 12 
4 12 
4 12 
4 12 
4 12 
4 12 
4 12 
4 12 
4 12 
4 12 
4 12 
4 12 
4 12 
4 12 
4 12 
4 12 
4 12 
4 12 
4 12 
4 12 
4 12 
4 12 
4 12 
4 12 
4 12 
4 12 
4 12 
4 12 
4 12 
4 12 
4 12 
4 12 
4 12 
4 12 
4 12 
4 12 
4 12 
4 12 
4 12 
4 12 
4 12 
4 12 
4 12 
4 12 
4 12 
4 12 
4 12 
4 12 
4 12 
4 12 
4 12 
4 12 
4 12 
4 12 
4 12 
4 12 
4 12 
4 12 
4 12 
4 12 
4 12 
4 12 
4 12 
4 12 
4 12 
4 12 
4 12 
4 12 
4 12 
4 12 
4 12 
4 12 
4 12 
4 12 
4 12 
4 12 
4 12 
4 12 
4 12 
4 12 
4 12 
4 12 
4 12 
4 12 
4 12 
4 12 
4 12 
4 12 
4 12 
4 12 
4 12 
4 12 
4 12 
4 12 
4 12 
4 12 
4 12 
4 12 
4 12 
4 12 
4 12 
4 12 
4 12 
4 12 
4 12 
4 12 
4 12 
4 12 
4 12 
4 12 
4 12 
4 12 
4 12 
4 12 
4 12 
4 12 
4 12 
4 12 
4 12 
4 12 
4 12 
4 12 
4 12 
4 12 
4 12 
4 12 
4 12 
4 12 
4 12 
4 12 
4 12 
4 12 
4 12 
4 12 
4 12 
4 12 
4 12 
4 12 
4 12 
4 12 
4 12 
4 12 
4 12 
4 12 
4 12 
4 12 
4 12 
4 12 
4 12 
4 12 
4 12 
4 12 
4 12 
4 12 
4 12 
4 12 
4 12 
4 12 
4 12 
4 12 
4 12 
4 12 
4 12 
4 12 
4 12 
4 12 
4 12 
4 12 
4 12 
4 12 
4 12 
4 12 
4 12 
4 12 
4 12 
4 12 
4 12 
4 12 
4 12 
4 12 
4 12 
4 12 
4 12 
4 12 
4 12 
4 12 
4 12 
4 12 
4 12 
4 12 
4 12 
4 12 
4 12 
4 12 
4 12 
4 12 
4 12 
4 12 
4 12 
4 12 
4 12 
4 12 
4 12 
4 12 
4 12 
4 12 
4 12 
4 12 
4 12 
4 12 
4 12 
4 12 
4 12 
4 12 
4 12 
4 12 
4 12 
4 12 
4 12 
4 12 
4 12 
4 12 
4 12 
4 12 
4 12 
4 12 
4 12 
4 12 
4 12 
4 12 
4 12 
4 12 
4 12 
4 12 
4 12 
4 12 
4 12 
4 12 
4 12 
4 12 
4 12 
4 12 
4 12 
4 12 
4 12 
4 12 
4 12 
4 12 
4 12 
4 12 
4 12 
4 12 
4 12 
4 12 
4 12 
4 12 
4 12 
4 12 
4 12 
4 12 
4 12 
4 12 
4 12 
4 12 
4 12 
4 12 
4 12 
4 12 
4 12 
4 12 
4 12 
4 12 
4 12 
4 12 
4 12 
4 12 
4 12 
4 12 
4 12 
4 12 
4 12 
4 12 
4 12 
4 12 
4 12 
4 12 
4 12 
4 12 
4 12 
4 12 
4 12 
4 12 
4 12 
4 12 
4 12 
4 12 
4 12 
4 12 
4 12 
4 12 
4 12 
4 12 
4 12 
4 12 
4 12 
4 12 
4 12 
4 12 
4 12 
4 12 
4 12 
4 12 
4 12 
4 12 
4 12 
4 12 
4 12 
4 12 
4 12 
4 12 
4 12 
4 12 
4 12 
4 12 
4 12 
4 12 
4 12 
4 12 
4 12 
4 12 
4 12 
4 12 
4 12 
4 12 
4 12 
4 12 
4 12 
4 12 
4 12 
4 12 
4 12 
4 12 
4 12 
4 12 
4 12 
4 12 
4 12 
4 12 
4 12 
4 12 
4 12 
4 12 
4 12 
4 12 
4 12 
4 12 
4 12 
4 12 
4 12 
4 12 
4 12 
4 12 
4 12 
4 12 
4 12 
4 12 
4 12 
4 12 
4 12 
4 12 
4 12 
4 12 
4 12 
4 12 
4 12 
4 12 
4 12 
4 12 
4 12 
4 12 
4 12 
4 12 
4 12 
4 12 
4 12 
4 12 
4 12 
4 12 
4 12 
4 12 
4 12 
4 12 
4 12 
4 12 
4 12 
4 12 
4 12 
4 12 
4 12 
4 12 
4 12 
4 12 
4 12 
4 12 
4 12 
4 12 
4 12 
4 12 
4 12 
4 12 
4 12 
4 12 
4 12 
4 12 
4 12 
4 12 
4 12 
4 12 
4 12 
4 12 
4 12 
4 12 
4 12 
4 12 
4 12 
4 12 
4 12 
4 12 
4 12 
4 12 
4 12 
4 12 
4 12 
4 12 
4 12 
4 12 
4 12 
4 12 
4 12 
4 12 
4 12 
4 12 
4 12 
4 12 
4 12 
4 12 
4 12 
4 12 
4 12 
4 12 
4 12 
4 12 
4 12 
4 12 
4 12 
4 12 
4 12 
4 12 
4 12 
4 12 
4 12 
4 12 
4 12 
4 12 
4 12 
4 12 
4 12 
4 12 
4 12 
4 12 
4 12 
4 12 
4 12 
4 12 
4 12 
4 12 
4 12 
4 12 
4 12 
4 12 
4 12 
4 12 
4 12 
4 12 
4 12 
4 12 
4 12 
4 12 
4 12 
4 12 
4 12 
4 12 
4 12 
4 12 
4 12 
4 12 
4 12 
4 12 
4 12 
4 12 
4 12 
4 12 
4 12 
4 12 
4 12 
4 12 
4 12 
4 12 
4 12 
4 12 
4 12 
4 12 
4 12 
4 12 
4 12 
4 12 
4 12 
4 12 
4 12 
4 12 
4 12 
4 12 
4 12 
4 12 
4 12 
4 12 
4 12 
4 12 
4 12 
4 12 
4 12 
4 12 
4 12 
4 12 
4 12 
4 12 
4 12 
4 12 
4 12 
4 12 
4 12 
4 12 
4 12 
4 12 
4 12 
4 12 
4 12 
4 12 
4 12 
4 12 
4 12 
4 12 
4 12 
4 12 
4 12 
4 12 
4 12 
4 12 
4 12 
4 12 
4 12 
4 12 
4 12 
4 12 
4 12 
4 12 
4 12 
4 12 
4 12 
4 12 
4 12 
4 12 
4 12 
4 12 
4 12 
4 12 
4 12 
4 12 
4 12 
4 12 
4 12 
4 12 
4 12 
4 12 
4 12 
4 12 
4 12 
4 12 
4 12 
4 12 
4 12 
4 12 
4 12 
4 12 
4 12 
4 12 
4 12 
4 12 
4 12 
4 12 
4 12 
4 12 
4 12 
4 12 
4 12 
4 12 
4 12 
4 12 
4 12 
4 12 
4 12 
4 12 
4 12 
4 12 
4 12 
4 12 
4 12 
4 12 
4 12 
4 12 
4 12 
4 12 
4 12 
4 12 
4 12 
4 12 
4 12 
4 12 
4 12 
4 12 
4 12 
4 12 
4 12 
4 12 
4 12 
4 12 
4 12 
4 12 
4 12 
4 12 
4 12 
4 12 
4 12 
4 12 
4 12 
4 12 
4 12 
4 12 
4 12 
4 12 
4 12 
4 12 
4 12 
4 12 
4 12 
4 12 
4 12 
4 12 
4 12 
4 12 
4 12 
4 12 
4 12 
4 12 
4 12 
4 12 
4 12 
4 12 
4 12 
4 12 
4 12 
4 12 
4 12 
4 12 
4 12 
4 12 
4 12 
4 12 
4 12 
4 12 
4 12 
4 12 
4 12 
4 12 
4 12 
4 12 
4 12 
4 12 
4 12 
4 12 
4 12 
4 12 
4 12 
4 12 
4 12 
4 12 
4 12 
4 12 
4 12 
4 12 
4 12 
4 12 
4 12 
4 12 
4 12 
4 12 
4 12 
4 12 
4 12 
4 12 
4 12 
4 12 
4 12 
4 12 
4 12 
4 12 
4 12 
4 12 
4 12 
4 12 
4 12 
4 12 
4 12 
4 12 
4 12 
4 12 
4 12 
4 12 
4 12 
4 12 
4 12 
4 12 
4 12 
4 12 
4 12 
4 12 
4 12 
4 12 
4 12 
4 12 
4 12 
4 12 
4 12 
4 12 
4 12 
4 12 
4 12 
4 12 
4 12 
4 12 
4 12 
4 12 
4 12 
4 12 
4 12 
4 12 
4 12 
4 12 
4 12 
4 12 
4 12 
4 12 
4 12 
4 12 
4 12 
4 12 
4 12 
4 12 
4 12 
4 12 
4 12 
4 12 
4 12 
4 12 
4 12 
4 12 
4 12 
4 12 
4 12 
4 12 
4 12 
4 12 
4 12 
4 12 
12 4 
5 11 
12 4 
5 11 
12 4 
5 11 
12 4 
6 10 
12 4 
7 9 
12 4 
7 9 
12 4 
8 8 
12 4 
8 8 
12 4 
9 7 
12 4 
9 7 
12 4 
10 6 
12 4 
10 6 
12 4 
10 6 
12 4 
11 5 
12 4 
12 4 
12 4 
12 4 
12 4 
12 4 
12 4 
12 4 
12 4 
12 4 
12 4 
12 4 
12 4 
12 4 
12 4 
12 4 
12 4 
12 4 
12 4 
12 4 
12 4 
12 4 
12 4 
12 4 
12 4 
12 4 
12 4 
12 4 
12 4 
12 4 
12 4 
12 4 
12 4 
12 4 
12 4 
12 4 
12 4 
12 4 
12 4 
12 4 
12 4 
12 4 
12 4 
12 4 
12 4 
12 4 
12 4 
12 4 
12 4 
12 4 
12 4 
12 4 
12 4 
12 4 
12 4 
12 4 
12 4 
12 4 
12 4 
12 4 
12 4 
12 4 
12 4 
12 4 
12 4 
12 4 
12 4 
12 4 
12 4 
12 4 
12 4 
12 4 
12 4 
12 4 
12 4 
12 4 
12 4 
12 4 
12 4 
12 4 
12 4 
12 4 
12 4 
12 4 
12 4 
12 4 
12 4 
12 4 
12 4 
12 4 
12 4 
12 4 
12 4 
12 4 
12 4 
12 4 
12 4 
12 4 
12 4 
12 4 
12 4 
12 4 
12 4 
12 4 
12 4 
12 4 
12 4 
12 4 
12 4 
12 4 
12 4 
12 4 
12 4 
12 4 
12 4 
12 4 
12 4 
12 4 
12 4 
12 4 
12 4 
12 4 
12 4 
12 4 
12 4 
12 4 
12 4 
12 4 
12 4 
12 4 
12 4 
12 4 
12 4 
12 4 
12 4 
12 4 
12 4 
12 4 
12 4 
12 4 
12 4 
12 4 
12 4 
12 4 
12 4 
12 4 
12 4 
12 4 
12 4 
12 4 
12 4 
12 4 
12 4 
12 4 
12 4 
12 4 
12 4 
12 4 
12 4 
12 4 
12 4 
12 4 
12 4 
12 4 
12 4 
12 4 
12 4 
12 4 
12 4 
12 4 
12 4 
12 4 
12 4 
12 4 
12 4 
12 4 
12 4 
12 4 
12 4 
12 4 
12 4 
12 4 
12 4 
12 4 
12 4 
12 4 
12 4 
12 4 
12 4 
12 4 
12 4 
12 4 
12 4 
12 4 
12 4 
12 4 
12 4 
12 4 
12 4 
12 4 
12 4 
12 4 
12 4 
12 4 
12 4 
12 4 
12 4 
12 4 
12 4 
12 4 
12 4 
12 4 
12 4 
12 4 
12 4 
12 4 
12 4 
12 4 
12 4 
12 4 
12 4 
12 4 
12 4 
12 4 
12 4 
12 4 
12 4 
12 4 
12 4 
12 4 
12 4 
12 4 
12 4 
12 4 
12 4 
12 4 
12 4 
12 4 
12 4 
12 4 
12 4 
12 4 
12 4 
12 4 
12 4 
12 4 
12 4 
12 4 
12 4 
12 4 
12 4 
12 4 
12 4 
12 4 
12 4 
12 4 
12 4 
12 4 
12 4 
12 4 
12 4 
12 4 
12 4 
12 4 
12 4 
12 4 
12 4 
12 4 
12 4 
12 4 
12 4 
12 4 
12 4 
12 4 
12 4 
12 4 
12 4 
12 4 
12 4 
12 4 
12 4 
12 4 
12 4 
12 4 
12 4 
12 4 
12 4 
12 4 
12 4 
12 4 
12 4 
12 4 
12 4 
12 4 
12 4 
12 4 
12 4 
12 4 
12 4 
12 4 
12 4 
12 4 
12 4 
12 4 
12 4 
12 4 
12 4 
12 4 
12 4 
12 4 
12 4 
12 4 
12 4 
12 4 
12 4 
12 4 
12 4 
12 4 
12 4 
12 4 
12 4 
12 4 
12 4 
12 4 
12 4 
12 4 
12 4 
12 4 
12 4 
12 4 
12 4 
12 4 
12 4 
12 4 
12 4 
12 4 
12 4 
12 4 
12 4 
12 4 
12 4 
12 4 
12 4 
12 4 
12 4 
12 4 
12 4 
12 4 
12 4 
12 4 
12 4 
12 4 
12 4 
12 4 
12 4 
12 4 
12 4 
12 4 
12 4 
12 4 
12 4 
12 4 
12 4 
12 4 
12 4 
12 4 
12 4 
12 4 
12 4 
12 4 
12 4 
12 4 
12 4 
12 4 
12 4 
12 4 
12 4 
12 4 
12 4 
12 4 
12 4 
12 4 
12 4 
12 4 
12 4 
12 4 
12 4 
12 4 
12 4 
12 4 
12 4 
12 4 
12 4 
12 4 
12 4 
12 4 
12 4 
12 4 
12 4 
12 4 
12 4 
12 4 
12 4 
12 4 
12 4 
12 4 
12 4 
12 4 
12 4 
12 4 
12 4 
12 4 
12 4 
12 4 
12 4 
12 4 
12 4 
12 4 
12 4 
12 4 
12 4 
12 4 
12 4 
12 4 
12 4 
12 4 
12 4 
12 4 
12 4 
12 4 
12 4 
12 4 
12 4 
12 4 
12 4 
12 4 
12 4 
12 4 
12 4 
12 4 
12 4 
12 4 
12 4 
12 4 
12 4 
12 4 
12 4 
12 4 
12 4 
12 4 
12 4 
12 4 
12 4 
12 4 
12 4 
12 4 
12 4 
12 4 
12 4 
12 4 
12 4 
12 4 
12 4 
Finished CPU 1 instructions: 1000002 cycles: 5302336 cumulative IPC: 0.188597 (Simulation time: 0 hr 2 min 12 sec) 

ChampSim completed all CPUs

Total Simulation Statistics (not including warmup)

CPU 0 cumulative IPC: 0.193474 instructions: 1025863 cycles: 5302336
L1D TOTAL     ACCESS:     194814  HIT:     131240  MISS:      63574
L1D LOAD      ACCESS:      86854  HIT:      65084  MISS:      21770
L1D RFO       ACCESS:     107960  HIT:      66156  MISS:      41804
L1D PREFETCH  ACCESS:          0  HIT:          0  MISS:          0
L1D WRITEBACK ACCESS:          0  HIT:          0  MISS:          0
L1I TOTAL     ACCESS:     190884  HIT:     190864  MISS:         20
L1I LOAD      ACCESS:     190884  HIT:     190864  MISS:         20
L1I RFO       ACCESS:          0  HIT:          0  MISS:          0
L1I PREFETCH  ACCESS:          0  HIT:          0  MISS:          0
L1I WRITEBACK ACCESS:          0  HIT:          0  MISS:          0
L2C TOTAL     ACCESS:     114211  HIT:      51473  MISS:      62738
L2C LOAD      ACCESS:      21790  HIT:        850  MISS:      20940
L2C RFO       ACCESS:      41804  HIT:          7  MISS:      41797
L2C PREFETCH  ACCESS:          0  HIT:          0  MISS:          0
L2C WRITEBACK ACCESS:      50617  HIT:      50616  MISS:          1
LLC TOTAL     ACCESS:     114145  HIT:      35147  MISS:      78998
LLC LOAD      ACCESS:      20940  HIT:       2138  MISS:      18802
LLC RFO       ACCESS:      41797  HIT:        125  MISS:      41672
LLC PREFETCH  ACCESS:          0  HIT:          0  MISS:          0
LLC WRITEBACK ACCESS:      51408  HIT:      32884  MISS:      18524

CPU 1 cumulative IPC: 0.188597 instructions: 1000002 cycles: 5302336
L1D TOTAL     ACCESS:     189151  HIT:     126360  MISS:      62791
L1D LOAD      ACCESS:      83323  HIT:      62287  MISS:      21036
L1D RFO       ACCESS:     105828  HIT:      64073  MISS:      41755
L1D PREFETCH  ACCESS:          0  HIT:          0  MISS:          0
L1D WRITEBACK ACCESS:          0  HIT:          0  MISS:          0
L1I TOTAL     ACCESS:     186060  HIT:     186040  MISS:         20
L1I LOAD      ACCESS:     186060  HIT:     186040  MISS:         20
L1I RFO       ACCESS:          0  HIT:          0  MISS:          0
L1I PREFETCH  ACCESS:          0  HIT:          0  MISS:          0
L1I WRITEBACK ACCESS:          0  HIT:          0  MISS:          0
L2C TOTAL     ACCESS:     113222  HIT:      51269  MISS:      61953
L2C LOAD      ACCESS:      21056  HIT:        853  MISS:      20203
L2C RFO       ACCESS:      41755  HIT:          6  MISS:      41749
L2C PREFETCH  ACCESS:          0  HIT:          0  MISS:          0
L2C WRITEBACK ACCESS:      50411  HIT:      50410  MISS:          1
LLC TOTAL     ACCESS:     112801  HIT:      23132  MISS:      89669
LLC LOAD      ACCESS:      20203  HIT:        521  MISS:      19682
LLC RFO       ACCESS:      41749  HIT:         11  MISS:      41738
LLC PREFETCH  ACCESS:          0  HIT:          0  MISS:          0
LLC WRITEBACK ACCESS:      50849  HIT:      22600  MISS:      28249

Region of Interest Statistics

CPU 0 cumulative IPC: 0.193352 instructions: 1000003 cycles: 5171919
L1D TOTAL     ACCESS:     189305  HIT:     126621  MISS:      62684
L1D LOAD      ACCESS:      83626  HIT:      62561  MISS:      21065
L1D RFO       ACCESS:     105679  HIT:      64060  MISS:      41619
L1D PREFETCH  ACCESS:          0  HIT:          0  MISS:          0
L1D WRITEBACK ACCESS:          0  HIT:          0  MISS:          0
L1D PREFETCH  REQUESTED:          0  ISSUED:          0  USEFUL:          0  USELESS:          0
L1D AVERAGE MISS LATENCY: 408.488 cycles
L1I TOTAL     ACCESS:     186163  HIT:     186143  MISS:         20
L1I LOAD      ACCESS:     186163  HIT:     186143  MISS:         20
L1I RFO       ACCESS:          0  HIT:          0  MISS:          0
L1I PREFETCH  ACCESS:          0  HIT:          0  MISS:          0
L1I WRITEBACK ACCESS:          0  HIT:          0  MISS:          0
L1I PREFETCH  REQUESTED:          0  ISSUED:          0  USEFUL:          0  USELESS:          0
L1I AVERAGE MISS LATENCY: 437.7 cycles
L2C TOTAL     ACCESS:     112956  HIT:      51107  MISS:      61849
L2C LOAD      ACCESS:      21085  HIT:        850  MISS:      20235
L2C RFO       ACCESS:      41619  HIT:          6  MISS:      41613
L2C PREFETCH  ACCESS:          0  HIT:          0  MISS:          0
L2C WRITEBACK ACCESS:      50252  HIT:      50251  MISS:          1
L2C PREFETCH  REQUESTED:          0  ISSUED:          0  USEFUL:          0  USELESS:          0
L2C AVERAGE MISS LATENCY: 396.764 cycles
LLC TOTAL     ACCESS:     112789  HIT:      34750  MISS:      78039
LLC LOAD      ACCESS:      20235  HIT:       2029  MISS:      18206
LLC RFO       ACCESS:      41613  HIT:        125  MISS:      41488
LLC PREFETCH  ACCESS:          0  HIT:          0  MISS:          0
LLC WRITEBACK ACCESS:      50941  HIT:      32596  MISS:      18345
LLC PREFETCH  REQUESTED:          0  ISSUED:          0  USEFUL:          0  USELESS:          0
LLC AVERAGE MISS LATENCY: 578.801 cycles
Major fault: 0 Minor fault: 2755

CPU 1 cumulative IPC: 0.188597 instructions: 1000002 cycles: 5302336
L1D TOTAL     ACCESS:     189151  HIT:     126360  MISS:      62791
L1D LOAD      ACCESS:      83323  HIT:      62287  MISS:      21036
L1D RFO       ACCESS:     105828  HIT:      64073  MISS:      41755
L1D PREFETCH  ACCESS:          0  HIT:          0  MISS:          0
L1D WRITEBACK ACCESS:          0  HIT:          0  MISS:          0
L1D PREFETCH  REQUESTED:          0  ISSUED:          0  USEFUL:          0  USELESS:          0
L1D AVERAGE MISS LATENCY: 407.78 cycles
L1I TOTAL     ACCESS:     186060  HIT:     186040  MISS:         20
L1I LOAD      ACCESS:     186060  HIT:     186040  MISS:         20
L1I RFO       ACCESS:          0  HIT:          0  MISS:          0
L1I PREFETCH  ACCESS:          0  HIT:          0  MISS:          0
L1I WRITEBACK ACCESS:          0  HIT:          0  MISS:          0
L1I PREFETCH  REQUESTED:          0  ISSUED:          0  USEFUL:          0  USELESS:          0
L1I AVERAGE MISS LATENCY: 345.9 cycles
L2C TOTAL     ACCESS:     113222  HIT:      51269  MISS:      61953
L2C LOAD      ACCESS:      21056  HIT:        853  MISS:      20203
L2C RFO       ACCESS:      41755  HIT:          6  MISS:      41749
L2C PREFETCH  ACCESS:          0  HIT:          0  MISS:          0
L2C WRITEBACK ACCESS:      50411  HIT:      50410  MISS:          1
L2C PREFETCH  REQUESTED:          0  ISSUED:          0  USEFUL:          0  USELESS:          0
L2C AVERAGE MISS LATENCY: 396.305 cycles
LLC TOTAL     ACCESS:     112801  HIT:      23132  MISS:      89669
LLC LOAD      ACCESS:      20203  HIT:        521  MISS:      19682
LLC RFO       ACCESS:      41749  HIT:         11  MISS:      41738
LLC PREFETCH  ACCESS:          0  HIT:          0  MISS:          0
LLC WRITEBACK ACCESS:      50849  HIT:      22600  MISS:      28249
LLC PREFETCH  REQUESTED:          0  ISSUED:          0  USEFUL:          0  USELESS:          0
LLC AVERAGE MISS LATENCY: 503.731 cycles
Major fault: 0 Minor fault: 2743

DRAM Statistics
 CHANNEL 0
 RQ ROW_BUFFER_HIT:      55739  ROW_BUFFER_MISS:      66154
 DBUS_CONGESTED:     119199
 WQ ROW_BUFFER_HIT:      17687  ROW_BUFFER_MISS:      46614  FULL:        312

 AVG_CONGESTED_CYCLE: 6

CPU 0 Branch Prediction Accuracy: 94.802% MPKI: 8.39768 Average ROB Occupancy at Mispredict: 103.192

Branch types
NOT_BRANCH: 860159 83.8474%
BRANCH_DIRECT_JUMP: 19 0.0018521%
BRANCH_INDIRECT: 0 0%
BRANCH_CONDITIONAL: 149366 14.56%
BRANCH_DIRECT_CALL: 8329 0.811902%
BRANCH_INDIRECT_CALL: 0 0%
BRANCH_RETURN: 8330 0.811999%
BRANCH_OTHER: 0 0%


CPU 1 Branch Prediction Accuracy: 94.7181% MPKI: 8.53196 Average ROB Occupancy at Mispredict: 102.131

Branch types
NOT_BRANCH: 838188 83.8186%
BRANCH_DIRECT_JUMP: 18 0.0018%
BRANCH_INDIRECT: 0 0%
BRANCH_CONDITIONAL: 145027 14.5027%
BRANCH_DIRECT_CALL: 8243 0.824298%
BRANCH_INDIRECT_CALL: 0 0%
BRANCH_RETURN: 8244 0.824398%
BRANCH_OTHER: 0 0%

